
     RDKit          3D

 34 35  0  0  0  0  0  0  0  0999 V2000
   -0.7480   -1.3760    0.1717 C   0  0  1  0  0  0  0  0  0  0  0  0
   -1.7481   -2.3668    0.1645 O   0  0  0  0  0  0  0  0  0  0  0  0
    0.2503   -1.5533   -0.9385 C   0  0  0  0  0  0  0  0  0  0  0  0
    0.6433   -0.1165   -1.2895 C   0  0  2  0  0  0  0  0  0  0  0  0
    2.0354    0.1610   -0.8659 N   0  0  0  0  0  0  0  0  0  0  0  0
    2.2756    0.8667    0.2860 C   0  0  0  0  0  0  0  0  0  0  0  0
    3.5755    1.1578    0.6909 C   0  0  0  0  0  0  0  0  0  0  0  0
    4.6358    0.7087   -0.0936 C   0  0  0  0  0  0  0  0  0  0  0  0
    5.8634    0.9578    0.2354 N   0  0  0  0  0  0  0  0  0  0  0  0
    4.3764   -0.0070   -1.2137 N   0  0  0  0  0  0  0  0  0  0  0  0
    3.1069   -0.2950   -1.6046 C   0  0  0  0  0  0  0  0  0  0  0  0
    2.9427   -1.0665   -2.7585 O   0  0  0  0  0  0  0  0  0  0  0  0
   -0.2670    0.7833   -0.6803 O   0  0  0  0  0  0  0  0  0  0  0  0
   -1.2958    0.0229   -0.0912 C   0  0  2  0  0  0  0  0  0  0  0  0
   -1.7764    0.7121    1.1938 C   0  0  0  0  0  0  0  0  0  0  0  0
   -2.7783   -0.0580    1.8273 O   0  0  0  0  0  0  0  0  0  0  0  0
   -4.3226    0.5867    1.4837 P   0  0  0  0  0  0  0  0  0  0  0  0
   -4.4699    1.9424    2.1387 O   0  0  0  0  0  0  0  0  0  0  0  0
   -4.5606    0.7269   -0.1881 O   0  0  0  0  0  0  0  0  0  0  0  0
   -5.4970   -0.4542    2.1142 O   0  0  0  0  0  0  0  0  0  0  0  0
   -0.2101   -1.4077    1.1459 H   0  0  0  0  0  0  0  0  0  0  0  0
   -2.2298   -2.3184   -0.7024 H   0  0  0  0  0  0  0  0  0  0  0  0
    1.1137   -2.1697   -0.6039 H   0  0  0  0  0  0  0  0  0  0  0  0
   -0.2169   -2.0376   -1.8247 H   0  0  0  0  0  0  0  0  0  0  0  0
    0.5522    0.0458   -2.3856 H   0  0  0  0  0  0  0  0  0  0  0  0
    1.4648    1.2114    0.9145 H   0  0  0  0  0  0  0  0  0  0  0  0
    3.7475    1.7218    1.5999 H   0  0  0  0  0  0  0  0  0  0  0  0
    6.1152    1.5029    1.0912 H   0  0  0  0  0  0  0  0  0  0  0  0
    2.0505   -1.3996   -3.0963 H   0  0  0  0  0  0  0  0  0  0  0  0
   -2.1393   -0.0242   -0.8141 H   0  0  0  0  0  0  0  0  0  0  0  0
   -2.0766    1.7626    0.9714 H   0  0  0  0  0  0  0  0  0  0  0  0
   -0.9189    0.7953    1.8952 H   0  0  0  0  0  0  0  0  0  0  0  0
   -4.1616    1.5989   -0.4360 H   0  0  0  0  0  0  0  0  0  0  0  0
   -5.3325   -1.3202    1.6627 H   0  0  0  0  0  0  0  0  0  0  0  0
  1  2  1  0
  1  3  1  0
  3  4  1  0
  4  5  1  0
  5  6  1  0
  6  7  2  0
  7  8  1  0
  8  9  2  3
  8 10  1  0
 10 11  2  0
 11 12  1  0
  4 13  1  0
 13 14  1  0
 14 15  1  0
 15 16  1  0
 16 17  1  0
 17 18  2  0
 17 19  1  0
 17 20  1  0
 14  1  1  0
 11  5  1  0
  1 21  1  1
  2 22  1  0
  3 23  1  0
  3 24  1  0
  4 25  1  6
  6 26  1  0
  7 27  1  0
  9 28  1  0
 12 29  1  0
 14 30  1  6
 15 31  1  0
 15 32  1  0
 19 33  1  0
 20 34  1  0
M  END
$$$$
