
 OpenBabel12121609393D
libRbt.so/2013.1/901 2013/11/27
 28 30  0  0  0  0  0  0  0  0999 V2000
   38.6548   13.8453   85.3854 C   0  0  0  0  0  0  0  0  0  0  0  0
   39.6902   13.0832   84.6557 C   0  0  0  0  0  0  0  0  0  0  0  0
   39.5865   11.8276   84.6197 O   0  0  0  0  0  0  0  0  0  0  0  0
   40.8465   13.7261   83.9852 C   0  0  0  0  0  0  0  0  0  0  0  0
   41.3067   13.2342   82.7580 C   0  0  0  0  0  0  0  0  0  0  0  0
   42.4264   13.7991   82.1048 C   0  0  0  0  0  0  0  0  0  0  0  0
   43.0434   14.9513   82.6794 C   0  0  0  0  0  0  0  0  0  0  0  0
   42.6036   15.3892   83.9477 C   0  0  0  0  0  0  0  0  0  0  0  0
   41.5266   14.7857   84.5894 C   0  0  0  0  0  0  0  0  0  0  0  0
   44.2202   15.6773   82.0099 C   0  0  0  0  0  0  0  0  0  0  0  0
   43.9960   17.2102   82.0201 C   0  0  0  0  0  0  0  0  0  0  0  0
   45.5166   15.3615   82.7905 C   0  0  0  0  0  0  0  0  0  0  0  0
   44.3776   15.2575   80.5273 C   0  0  0  0  0  0  0  0  0  0  0  0
   44.2698   13.7491   80.3405 C   0  0  0  0  0  0  0  0  0  0  0  0
   42.8835   13.2027   80.7642 C   0  0  0  0  0  0  0  0  0  0  0  0
   43.0218   11.6629   80.8669 C   0  0  0  0  0  0  0  0  0  0  0  0
   41.8310   13.5340   79.6813 C   0  0  0  0  0  0  0  0  0  0  0  0
   38.5936   15.1852   85.3682 C   0  0  0  0  0  0  0  0  0  0  0  0
   37.5635   15.9756   86.0863 C   0  0  0  0  0  0  0  0  0  0  0  0
   36.5567   15.3798   86.8698 C   0  0  0  0  0  0  0  0  0  0  0  0
   35.6028   16.1687   87.5204 C   0  0  0  0  0  0  0  0  0  0  0  0
   35.6305   17.5688   87.4012 C   0  0  0  0  0  0  0  0  0  0  0  0
   34.6230   18.4180   88.0825 C   0  0  0  0  0  0  0  0  0  0  0  0
   33.7063   17.8797   88.7586 O   0  0  0  0  0  0  0  0  0  0  0  0
   34.6480   19.8090   87.9858 O   0  0  0  0  0  0  0  0  0  0  0  0
   36.6189   18.1599   86.5963 C   0  0  0  0  0  0  0  0  0  0  0  0
   37.5723   17.3718   85.9463 C   0  0  0  0  0  0  0  0  0  0  0  0
   35.3272   20.3046   87.4231 H   0  0  0  0  0  0  0  0  0  0  0  0
  1  2  1  0  0  0  0
  1 18  2  0  0  0  0
  2  3  2  0  0  0  0
  2  4  1  0  0  0  0
  4  5  2  0  0  0  0
  5  6  1  0  0  0  0
  6  7  2  0  0  0  0
  7  8  1  0  0  0  0
  7 10  1  0  0  0  0
  8  9  2  0  0  0  0
  9  4  1  0  0  0  0
 10 11  1  0  0  0  0
 10 12  1  0  0  0  0
 10 13  1  0  0  0  0
 13 14  1  0  0  0  0
 14 15  1  0  0  0  0
 15 16  1  0  0  0  0
 15 17  1  0  0  0  0
 15  6  1  0  0  0  0
 18 19  1  0  0  0  0
 19 20  2  0  0  0  0
 20 21  1  0  0  0  0
 21 22  2  0  0  0  0
 22 23  1  0  0  0  0
 22 26  1  0  0  0  0
 23 24  2  0  0  0  0
 23 25  1  0  0  0  0
 25 28  1  0  0  0  0
 26 27  2  0  0  0  0
 27 19  1  0  0  0  0
M  END
