
  rDOCK(R)          3D
libRbt.so/2013.1/901 2013/11/27
 28 30  0  0  0  0  0  0  0  0999 V2000
   40.0079   15.2065   85.4579 C   0  0  0  0  0  0
   41.1908   14.3666   85.1741 C   0  0  0  0  0  0
   41.8191   13.8784   86.1515 O   0  0  0  0  0  0
   41.6768   14.0907   83.8002 C   0  0  0  0  0  0
   43.0194   14.3156   83.4739 C   0  0  0  0  0  0
   43.5122   14.0964   82.1667 C   0  0  0  0  0  0
   42.6288   13.5535   81.1853 C   0  0  0  0  0  0
   41.2659   13.3960   81.5191 C   0  0  0  0  0  0
   40.7986   13.6624   82.8023 C   0  0  0  0  0  0
   43.0880   13.2157   79.7587 C   0  0  0  0  0  0
   42.5706   11.8190   79.3325 C   0  0  0  0  0  0
   42.5206   14.2724   78.7835 C   0  0  0  0  0  0
   44.6327   13.1722   79.6542 C   0  0  0  0  0  0
   45.2917   14.3536   80.3555 C   0  0  0  0  0  0
   44.9957   14.3733   81.8760 C   0  0  0  0  0  0
   45.4042   15.7756   82.3931 C   0  0  0  0  0  0
   45.8564   13.3100   82.5961 C   0  0  0  0  0  0
   39.2000   14.9905   86.5067 C   0  0  0  0  0  0
   38.0097   15.8196   86.8188 C   0  0  0  0  0  0
   37.0127   15.4088   87.7242 C   0  0  0  0  0  0
   35.9047   16.2232   87.9782 C   0  0  0  0  0  0
   35.7654   17.4637   87.3323 C   0  0  0  0  0  0
   34.5937   18.3364   87.5890 C   0  0  0  0  0  0
   34.5306   19.4730   87.0489 O   0  0  0  0  0  0
   33.5541   17.9423   88.4308 O   0  0  0  0  0  0
   36.7471   17.8593   86.4081 C   0  0  0  0  0  0
   37.8544   17.0457   86.1543 C   0  0  0  0  0  0
   33.5450   17.0485   88.9047 H   0  0  0  0  0  0
  1  2  1  0  0  0
  2  3  2  0  0  0
  2  4  1  0  0  0
  4  5  2  0  0  0
  5  6  1  0  0  0
  6  7  2  0  0  0
  7  8  1  0  0  0
  8  9  2  0  0  0
  7 10  1  0  0  0
 10 11  1  0  0  0
 10 12  1  0  0  0
 10 13  1  0  0  0
 13 14  1  0  0  0
 14 15  1  0  0  0
 15 16  1  0  0  0
 15 17  1  0  0  0
  1 18  2  0  0  0
 18 19  1  0  0  0
 19 20  2  0  0  0
 20 21  1  0  0  0
 21 22  2  0  0  0
 22 23  1  0  0  0
 23 24  2  0  0  0
 23 25  1  0  0  0
 22 26  1  0  0  0
 26 27  2  0  0  0
  9  4  1  0  0  0
 27 19  1  0  0  0
 15  6  1  0  0  0
 25 28  1  0  0  0
M  END
>  <CHROM.0>
-159.93245089,60.03318823,-63.07555459,175.33895679,-54.07530746,60.48427298
69.48627130,68.53234982

>  <CHROM.1>
-33.02841504,128.11890846,165.07749671,176.30212141,-0.07285552,40.48553601
15.10980608,84.01668044,-2.46843167,0.32647074,-1.71153449

>  <Name>

>  <RI>
3.36268e+07

>  <Rbt.Current_Directory>
/extra/banzai2/j5wagner/CELPP/2016_10_17_rdock_implementation/normal_run/tutorialVideo/tutorial_rdock_implementation/full_week_run/4-docking/1fcz/LMCSS_1fcz_docking

>  <Rbt.Executable>
rbdock ($Id: //depot/dev/client3/rdock/2013.1/src/exe/rbdock.cxx#4 $)

>  <Rbt.Library>
libRbt.so (2013.1, Build901 2013/11/27)

>  <Rbt.Parameter_File>
/home/j5wagner/env_00/source/rDock/rDock_2013.1_src//data/scripts/dock.prm

>  <Rbt.Receptor>
/extra/banzai2/j5wagner/CELPP/2016_10_17_rdock_implementation/normal_run/tutorialVideo/tutorial_rdock_implementation/full_week_run/4-docking/1fcz/LMCSS_1fcz_tech_prep/rDockGridGenInput.prm

>  <SCORE>
-42.343

>  <SCORE.INTER>
-25.1873

>  <SCORE.INTER.CONST>
1

>  <SCORE.INTER.POLAR>
-2.01754

>  <SCORE.INTER.REPUL>
0

>  <SCORE.INTER.ROT>
4

>  <SCORE.INTER.VDW>
-27.7276

>  <SCORE.INTER.norm>
-0.932862

>  <SCORE.INTRA>
0.919163

>  <SCORE.INTRA.DIHEDRAL>
0.861948

>  <SCORE.INTRA.DIHEDRAL.0>
10.7811

>  <SCORE.INTRA.POLAR>
0

>  <SCORE.INTRA.POLAR.0>
0

>  <SCORE.INTRA.REPUL>
0

>  <SCORE.INTRA.REPUL.0>
0

>  <SCORE.INTRA.VDW>
0.488189

>  <SCORE.INTRA.VDW.0>
-0.812999

>  <SCORE.INTRA.norm>
0.0340431

>  <SCORE.RESTR>
0

>  <SCORE.RESTR.CAVITY>
0

>  <SCORE.RESTR.norm>
0

>  <SCORE.SYSTEM>
-18.0749

>  <SCORE.SYSTEM.CONST>
0

>  <SCORE.SYSTEM.DIHEDRAL>
1.58583

>  <SCORE.SYSTEM.POLAR>
-4.72388

>  <SCORE.SYSTEM.VDW>
-2.80661

>  <SCORE.SYSTEM.norm>
-0.66944

>  <SCORE.heavy>
27

>  <SCORE.norm>
-1.56826

$$$$

  rDOCK(R)          3D
libRbt.so/2013.1/901 2013/11/27
 28 30  0  0  0  0  0  0  0  0999 V2000
   38.5129   13.7569   85.2980 C   0  0  0  0  0  0
   39.4897   12.9752   84.5106 C   0  0  0  0  0  0
   39.3035   11.7336   84.3999 O   0  0  0  0  0  0
   40.6799   13.5814   83.8657 C   0  0  0  0  0  0
   41.1515   13.0746   82.6490 C   0  0  0  0  0  0
   42.3024   13.6040   82.0206 C   0  0  0  0  0  0
   42.9421   14.7368   82.6088 C   0  0  0  0  0  0
   42.4882   15.1891   83.8669 C   0  0  0  0  0  0
   41.3791   14.6197   84.4848 C   0  0  0  0  0  0
   44.1553   15.4255   81.9653 C   0  0  0  0  0  0
   43.9787   16.9646   81.9706 C   0  0  0  0  0  0
   45.4238   15.0701   82.7743 C   0  0  0  0  0  0
   44.3322   15.0000   80.4866 C   0  0  0  0  0  0
   44.1817   13.4955   80.2974 C   0  0  0  0  0  0
   42.7701   12.9927   80.6904 C   0  0  0  0  0  0
   42.8582   11.4495   80.7962 C   0  0  0  0  0  0
   41.7525   13.3559   79.5846 C   0  0  0  0  0  0
   38.4905   15.0981   85.3003 C   0  0  0  0  0  0
   37.5194   15.9081   86.0762 C   0  0  0  0  0  0
   36.4882   15.3314   86.8422 C   0  0  0  0  0  0
   35.5921   16.1391   87.5495 C   0  0  0  0  0  0
   35.7030   17.5394   87.5057 C   0  0  0  0  0  0
   34.7575   18.4088   88.2478 C   0  0  0  0  0  0
   33.7311   17.9061   88.7782 O   0  0  0  0  0  0
   34.9612   19.7832   88.3663 O   0  0  0  0  0  0
   36.7153   18.1137   86.7183 C   0  0  0  0  0  0
   37.6109   17.3068   86.0117 C   0  0  0  0  0  0
   34.3317   20.3857   88.8804 H   0  0  0  0  0  0
  1  2  1  0  0  0
  2  3  2  0  0  0
  2  4  1  0  0  0
  4  5  2  0  0  0
  5  6  1  0  0  0
  6  7  2  0  0  0
  7  8  1  0  0  0
  8  9  2  0  0  0
  7 10  1  0  0  0
 10 11  1  0  0  0
 10 12  1  0  0  0
 10 13  1  0  0  0
 13 14  1  0  0  0
 14 15  1  0  0  0
 15 16  1  0  0  0
 15 17  1  0  0  0
  1 18  2  0  0  0
 18 19  1  0  0  0
 19 20  2  0  0  0
 20 21  1  0  0  0
 21 22  2  0  0  0
 22 23  1  0  0  0
 23 24  2  0  0  0
 23 25  1  0  0  0
 22 26  1  0  0  0
 26 27  2  0  0  0
  9  4  1  0  0  0
 27 19  1  0  0  0
 15  6  1  0  0  0
 25 28  1  0  0  0
M  END
>  <CHROM.0>
-159.59083774,179.56023763,-65.13251408,-55.13219479,64.32054012,-57.33846484
64.07957497,71.67333706

>  <CHROM.1>
-168.86111037,-146.35224272,-2.81073205,-9.79083791,-179.11133165,39.96006108
15.15697495,84.21087624,2.61069637,0.55027764,0.31160500

>  <Name>

>  <RI>
3.36268e+07

>  <Rbt.Current_Directory>
/extra/banzai2/j5wagner/CELPP/2016_10_17_rdock_implementation/normal_run/tutorialVideo/tutorial_rdock_implementation/full_week_run/4-docking/1fcz/LMCSS_1fcz_docking

>  <Rbt.Executable>
rbdock ($Id: //depot/dev/client3/rdock/2013.1/src/exe/rbdock.cxx#4 $)

>  <Rbt.Library>
libRbt.so (2013.1, Build901 2013/11/27)

>  <Rbt.Parameter_File>
/home/j5wagner/env_00/source/rDock/rDock_2013.1_src//data/scripts/dock.prm

>  <Rbt.Receptor>
/extra/banzai2/j5wagner/CELPP/2016_10_17_rdock_implementation/normal_run/tutorialVideo/tutorial_rdock_implementation/full_week_run/4-docking/1fcz/LMCSS_1fcz_tech_prep/rDockGridGenInput.prm

>  <SCORE>
-50.3395

>  <SCORE.INTER>
-29.8405

>  <SCORE.INTER.CONST>
1

>  <SCORE.INTER.POLAR>
-1.74167

>  <SCORE.INTER.REPUL>
0

>  <SCORE.INTER.ROT>
4

>  <SCORE.INTER.VDW>
-33.3189

>  <SCORE.INTER.norm>
-1.1052

>  <SCORE.INTRA>
-2.3071

>  <SCORE.INTRA.DIHEDRAL>
-5.581

>  <SCORE.INTRA.DIHEDRAL.0>
10.7811

>  <SCORE.INTRA.POLAR>
0

>  <SCORE.INTRA.POLAR.0>
0

>  <SCORE.INTRA.REPUL>
0

>  <SCORE.INTRA.REPUL.0>
0

>  <SCORE.INTRA.VDW>
0.483403

>  <SCORE.INTRA.VDW.0>
-0.812999

>  <SCORE.INTRA.norm>
-0.0854481

>  <SCORE.RESTR>
0

>  <SCORE.RESTR.CAVITY>
0

>  <SCORE.RESTR.norm>
0

>  <SCORE.SYSTEM>
-18.1919

>  <SCORE.SYSTEM.CONST>
0

>  <SCORE.SYSTEM.DIHEDRAL>
1.61875

>  <SCORE.SYSTEM.POLAR>
-4.74966

>  <SCORE.SYSTEM.VDW>
-2.85243

>  <SCORE.SYSTEM.norm>
-0.673774

>  <SCORE.heavy>
27

>  <SCORE.norm>
-1.86443

$$$$

  rDOCK(R)          3D
libRbt.so/2013.1/901 2013/11/27
 28 30  0  0  0  0  0  0  0  0999 V2000
   39.2964   14.8447   85.2862 C   0  0  0  0  0  0
   40.2862   13.9024   84.7225 C   0  0  0  0  0  0
   40.1009   12.6691   84.9051 O   0  0  0  0  0  0
   41.4879   14.3430   83.9731 C   0  0  0  0  0  0
   41.9326   13.6079   82.8679 C   0  0  0  0  0  0
   43.0929   13.9774   82.1490 C   0  0  0  0  0  0
   43.7718   15.1780   82.5175 C   0  0  0  0  0  0
   43.3436   15.8666   83.6734 C   0  0  0  0  0  0
   42.2238   15.4546   84.3892 C   0  0  0  0  0  0
   44.9991   15.6992   81.7544 C   0  0  0  0  0  0
   44.8689   17.2182   81.4787 C   0  0  0  0  0  0
   46.2639   15.4582   82.6099 C   0  0  0  0  0  0
   45.1492   15.0054   80.3778 C   0  0  0  0  0  0
   44.9518   13.4972   80.4676 C   0  0  0  0  0  0
   43.5295   13.1190   80.9513 C   0  0  0  0  0  0
   43.5722   11.6191   81.3372 C   0  0  0  0  0  0
   42.5129   13.3056   79.8015 C   0  0  0  0  0  0
   38.3386   14.4630   86.1441 C   0  0  0  0  0  0
   37.3358   15.3869   86.7292 C   0  0  0  0  0  0
   36.3369   14.9577   87.6240 C   0  0  0  0  0  0
   35.4088   15.8667   88.1416 C   0  0  0  0  0  0
   35.4549   17.2229   87.7756 C   0  0  0  0  0  0
   34.4748   18.1977   88.3137 C   0  0  0  0  0  0
   33.4633   17.7853   88.9416 O   0  0  0  0  0  0
   34.6294   19.5717   88.1323 O   0  0  0  0  0  0
   36.4349   17.6440   86.8610 C   0  0  0  0  0  0
   37.3625   16.7359   86.3438 C   0  0  0  0  0  0
   35.4155   19.9715   87.6366 H   0  0  0  0  0  0
  1  2  1  0  0  0
  2  3  2  0  0  0
  2  4  1  0  0  0
  4  5  2  0  0  0
  5  6  1  0  0  0
  6  7  2  0  0  0
  7  8  1  0  0  0
  8  9  2  0  0  0
  7 10  1  0  0  0
 10 11  1  0  0  0
 10 12  1  0  0  0
 10 13  1  0  0  0
 13 14  1  0  0  0
 14 15  1  0  0  0
 15 16  1  0  0  0
 15 17  1  0  0  0
  1 18  2  0  0  0
 18 19  1  0  0  0
 19 20  2  0  0  0
 20 21  1  0  0  0
 21 22  2  0  0  0
 22 23  1  0  0  0
 23 24  2  0  0  0
 23 25  1  0  0  0
 22 26  1  0  0  0
 26 27  2  0  0  0
  9  4  1  0  0  0
 27 19  1  0  0  0
 15  6  1  0  0  0
 25 28  1  0  0  0
M  END
>  <CHROM.0>
-161.14699691,61.18054742,-64.91553826,68.35369057,-58.11521891,62.74610449
-178.40255500,70.16199188

>  <CHROM.1>
10.47524994,-142.47380269,179.72750113,-11.05117862,-0.60274069,40.38324387
15.30489865,84.37318219,2.76320588,0.56170855,0.21503962

>  <Name>

>  <RI>
3.36268e+07

>  <Rbt.Current_Directory>
/extra/banzai2/j5wagner/CELPP/2016_10_17_rdock_implementation/normal_run/tutorialVideo/tutorial_rdock_implementation/full_week_run/4-docking/1fcz/LMCSS_1fcz_docking

>  <Rbt.Executable>
rbdock ($Id: //depot/dev/client3/rdock/2013.1/src/exe/rbdock.cxx#4 $)

>  <Rbt.Library>
libRbt.so (2013.1, Build901 2013/11/27)

>  <Rbt.Parameter_File>
/home/j5wagner/env_00/source/rDock/rDock_2013.1_src//data/scripts/dock.prm

>  <Rbt.Receptor>
/extra/banzai2/j5wagner/CELPP/2016_10_17_rdock_implementation/normal_run/tutorialVideo/tutorial_rdock_implementation/full_week_run/4-docking/1fcz/LMCSS_1fcz_tech_prep/rDockGridGenInput.prm

>  <SCORE>
-51.3255

>  <SCORE.INTER>
-30.2482

>  <SCORE.INTER.CONST>
1

>  <SCORE.INTER.POLAR>
-1.89667

>  <SCORE.INTER.REPUL>
0

>  <SCORE.INTER.ROT>
4

>  <SCORE.INTER.VDW>
-33.1996

>  <SCORE.INTER.norm>
-1.1203

>  <SCORE.INTRA>
-1.63015

>  <SCORE.INTRA.DIHEDRAL>
-4.71681

>  <SCORE.INTRA.DIHEDRAL.0>
10.7811

>  <SCORE.INTRA.POLAR>
0

>  <SCORE.INTRA.POLAR.0>
0

>  <SCORE.INTRA.REPUL>
0

>  <SCORE.INTRA.REPUL.0>
0

>  <SCORE.INTRA.VDW>
0.728253

>  <SCORE.INTRA.VDW.0>
-0.812999

>  <SCORE.INTRA.norm>
-0.060376

>  <SCORE.RESTR>
0

>  <SCORE.RESTR.CAVITY>
0

>  <SCORE.RESTR.norm>
0

>  <SCORE.SYSTEM>
-19.4471

>  <SCORE.SYSTEM.CONST>
0

>  <SCORE.SYSTEM.DIHEDRAL>
1.49276

>  <SCORE.SYSTEM.POLAR>
-4.92656

>  <SCORE.SYSTEM.VDW>
-3.44318

>  <SCORE.SYSTEM.norm>
-0.720263

>  <SCORE.heavy>
27

>  <SCORE.norm>
-1.90094

$$$$

  rDOCK(R)          3D
libRbt.so/2013.1/901 2013/11/27
 28 30  0  0  0  0  0  0  0  0999 V2000
   38.7079   13.9300   85.1529 C   0  0  0  0  0  0
   39.7432   13.1704   84.4203 C   0  0  0  0  0  0
   39.6060   11.9211   84.3264 O   0  0  0  0  0  0
   40.9361   13.8079   83.8117 C   0  0  0  0  0  0
   41.4659   13.3056   82.6172 C   0  0  0  0  0  0
   42.6213   13.8653   82.0245 C   0  0  0  0  0  0
   43.2045   15.0226   82.6237 C   0  0  0  0  0  0
   42.6926   15.4713   83.8607 C   0  0  0  0  0  0
   41.5806   14.8729   84.4448 C   0  0  0  0  0  0
   44.4179   15.7432   82.0165 C   0  0  0  0  0  0
   44.1937   17.2761   82.0007 C   0  0  0  0  0  0
   45.6673   15.4346   82.8729 C   0  0  0  0  0  0
   44.6600   15.3107   80.5491 C   0  0  0  0  0  0
   44.5629   13.8008   80.3694 C   0  0  0  0  0  0
   43.1545   13.2575   80.7175 C   0  0  0  0  0  0
   43.2865   11.7187   80.8413 C   0  0  0  0  0  0
   42.1659   13.5791   79.5733 C   0  0  0  0  0  0
   38.7277   15.2671   85.2577 C   0  0  0  0  0  0
   37.7003   16.0556   85.9818 C   0  0  0  0  0  0
   36.6211   15.4577   86.6603 C   0  0  0  0  0  0
   35.6734   16.2456   87.3211 C   0  0  0  0  0  0
   35.7798   17.6470   87.3169 C   0  0  0  0  0  0
   34.7801   18.4956   88.0104 C   0  0  0  0  0  0
   34.9514   19.7424   88.0686 O   0  0  0  0  0  0
   33.6508   17.9510   88.6209 O   0  0  0  0  0  0
   36.8417   18.2428   86.6157 C   0  0  0  0  0  0
   37.7888   17.4557   85.9555 C   0  0  0  0  0  0
   33.4731   16.9554   88.6502 H   0  0  0  0  0  0
  1  2  1  0  0  0
  2  3  2  0  0  0
  2  4  1  0  0  0
  4  5  2  0  0  0
  5  6  1  0  0  0
  6  7  2  0  0  0
  7  8  1  0  0  0
  8  9  2  0  0  0
  7 10  1  0  0  0
 10 11  1  0  0  0
 10 12  1  0  0  0
 10 13  1  0  0  0
 13 14  1  0  0  0
 14 15  1  0  0  0
 15 16  1  0  0  0
 15 17  1  0  0  0
  1 18  2  0  0  0
 18 19  1  0  0  0
 19 20  2  0  0  0
 20 21  1  0  0  0
 21 22  2  0  0  0
 22 23  1  0  0  0
 23 24  2  0  0  0
 23 25  1  0  0  0
 22 26  1  0  0  0
 26 27  2  0  0  0
  9  4  1  0  0  0
 27 19  1  0  0  0
 15  6  1  0  0  0
 25 28  1  0  0  0
M  END
>  <CHROM.0>
-160.04246916,-179.90512364,-62.65545390,68.25479564,-178.81176656,62.86234686
63.75427632,-56.21919115

>  <CHROM.1>
-176.87503977,-145.67410971,1.75916733,175.08277395,2.17588040,40.17530767
15.34910139,84.15005208,2.65341047,0.53019287,0.29500572

>  <Name>

>  <RI>
3.36268e+07

>  <Rbt.Current_Directory>
/extra/banzai2/j5wagner/CELPP/2016_10_17_rdock_implementation/normal_run/tutorialVideo/tutorial_rdock_implementation/full_week_run/4-docking/1fcz/LMCSS_1fcz_docking

>  <Rbt.Executable>
rbdock ($Id: //depot/dev/client3/rdock/2013.1/src/exe/rbdock.cxx#4 $)

>  <Rbt.Library>
libRbt.so (2013.1, Build901 2013/11/27)

>  <Rbt.Parameter_File>
/home/j5wagner/env_00/source/rDock/rDock_2013.1_src//data/scripts/dock.prm

>  <Rbt.Receptor>
/extra/banzai2/j5wagner/CELPP/2016_10_17_rdock_implementation/normal_run/tutorialVideo/tutorial_rdock_implementation/full_week_run/4-docking/1fcz/LMCSS_1fcz_tech_prep/rDockGridGenInput.prm

>  <SCORE>
-46.1854

>  <SCORE.INTER>
-31.5672

>  <SCORE.INTER.CONST>
1

>  <SCORE.INTER.POLAR>
-2.00251

>  <SCORE.INTER.REPUL>
0

>  <SCORE.INTER.ROT>
4

>  <SCORE.INTER.VDW>
-34.1586

>  <SCORE.INTER.norm>
-1.16915

>  <SCORE.INTRA>
-2.42744

>  <SCORE.INTRA.DIHEDRAL>
-6.08886

>  <SCORE.INTRA.DIHEDRAL.0>
10.7811

>  <SCORE.INTRA.POLAR>
0

>  <SCORE.INTRA.POLAR.0>
0

>  <SCORE.INTRA.REPUL>
0

>  <SCORE.INTRA.REPUL.0>
0

>  <SCORE.INTRA.VDW>
0.616988

>  <SCORE.INTRA.VDW.0>
-0.812999

>  <SCORE.INTRA.norm>
-0.0899052

>  <SCORE.RESTR>
0

>  <SCORE.RESTR.CAVITY>
0

>  <SCORE.RESTR.norm>
0

>  <SCORE.SYSTEM>
-12.1908

>  <SCORE.SYSTEM.CONST>
0

>  <SCORE.SYSTEM.DIHEDRAL>
1.08085

>  <SCORE.SYSTEM.POLAR>
-3.59366

>  <SCORE.SYSTEM.REPUL>
0.185456

>  <SCORE.SYSTEM.VDW>
-1.44004

>  <SCORE.SYSTEM.norm>
-0.45151

>  <SCORE.heavy>
27

>  <SCORE.norm>
-1.71057

$$$$

  rDOCK(R)          3D
libRbt.so/2013.1/901 2013/11/27
 28 30  0  0  0  0  0  0  0  0999 V2000
   38.6224   13.8190   85.3261 C   0  0  0  0  0  0
   39.6576   13.0594   84.5936 C   0  0  0  0  0  0
   39.5354   11.8068   84.5242 O   0  0  0  0  0  0
   40.8340   13.7007   83.9575 C   0  0  0  0  0  0
   41.3262   13.2116   82.7416 C   0  0  0  0  0  0
   42.4654   13.7751   82.1217 C   0  0  0  0  0  0
   43.0701   14.9231   82.7173 C   0  0  0  0  0  0
   42.5968   15.3581   83.9744 C   0  0  0  0  0  0
   41.5006   14.7559   84.5840 C   0  0  0  0  0  0
   44.2673   15.6475   82.0830 C   0  0  0  0  0  0
   44.0479   17.1812   82.0926 C   0  0  0  0  0  0
   45.5406   15.3246   82.8979 C   0  0  0  0  0  0
   44.4641   15.2324   80.6039 C   0  0  0  0  0  0
   44.3565   13.7251   80.4087 C   0  0  0  0  0  0
   42.9573   13.1819   80.7920 C   0  0  0  0  0  0
   43.0877   11.6413   80.8929 C   0  0  0  0  0  0
   41.9362   13.5205   79.6817 C   0  0  0  0  0  0
   38.6070   15.1593   85.3779 C   0  0  0  0  0  0
   37.5786   15.9477   86.1005 C   0  0  0  0  0  0
   36.5525   15.3484   86.8559 C   0  0  0  0  0  0
   35.6011   16.1356   87.5121 C   0  0  0  0  0  0
   35.6506   17.5376   87.4267 C   0  0  0  0  0  0
   34.6461   18.3853   88.1144 C   0  0  0  0  0  0
   33.7197   17.8449   88.7756 O   0  0  0  0  0  0
   34.6844   19.7772   88.0398 O   0  0  0  0  0  0
   36.6585   18.1329   86.6496 C   0  0  0  0  0  0
   37.6094   17.3464   85.9939 C   0  0  0  0  0  0
   35.3868   20.2760   87.5093 H   0  0  0  0  0  0
  1  2  1  0  0  0
  2  3  2  0  0  0
  2  4  1  0  0  0
  4  5  2  0  0  0
  5  6  1  0  0  0
  6  7  2  0  0  0
  7  8  1  0  0  0
  8  9  2  0  0  0
  7 10  1  0  0  0
 10 11  1  0  0  0
 10 12  1  0  0  0
 10 13  1  0  0  0
 13 14  1  0  0  0
 14 15  1  0  0  0
 15 16  1  0  0  0
 15 17  1  0  0  0
  1 18  2  0  0  0
 18 19  1  0  0  0
 19 20  2  0  0  0
 20 21  1  0  0  0
 21 22  2  0  0  0
 22 23  1  0  0  0
 23 24  2  0  0  0
 23 25  1  0  0  0
 22 26  1  0  0  0
 26 27  2  0  0  0
  9  4  1  0  0  0
 27 19  1  0  0  0
 15  6  1  0  0  0
 25 28  1  0  0  0
M  END
>  <CHROM.0>
-159.78943247,-179.64435160,-65.32020127,67.71713579,-56.13110753,-55.97725316
-177.71448494,160.03070807

>  <CHROM.1>
-175.12847584,-143.48421967,3.08526278,-0.86003655,0.68682732,40.04718787
15.26473101,84.24944561,2.66691201,0.55137809,0.25559388

>  <Name>

>  <RI>
3.36268e+07

>  <Rbt.Current_Directory>
/extra/banzai2/j5wagner/CELPP/2016_10_17_rdock_implementation/normal_run/tutorialVideo/tutorial_rdock_implementation/full_week_run/4-docking/1fcz/LMCSS_1fcz_docking

>  <Rbt.Executable>
rbdock ($Id: //depot/dev/client3/rdock/2013.1/src/exe/rbdock.cxx#4 $)

>  <Rbt.Library>
libRbt.so (2013.1, Build901 2013/11/27)

>  <Rbt.Parameter_File>
/home/j5wagner/env_00/source/rDock/rDock_2013.1_src//data/scripts/dock.prm

>  <Rbt.Receptor>
/extra/banzai2/j5wagner/CELPP/2016_10_17_rdock_implementation/normal_run/tutorialVideo/tutorial_rdock_implementation/full_week_run/4-docking/1fcz/LMCSS_1fcz_tech_prep/rDockGridGenInput.prm

>  <SCORE>
-46.6492

>  <SCORE.INTER>
-31.4792

>  <SCORE.INTER.CONST>
1

>  <SCORE.INTER.POLAR>
-1.86937

>  <SCORE.INTER.REPUL>
0

>  <SCORE.INTER.ROT>
4

>  <SCORE.INTER.VDW>
-34.5234

>  <SCORE.INTER.norm>
-1.1659

>  <SCORE.INTRA>
-2.3458

>  <SCORE.INTRA.DIHEDRAL>
-5.66863

>  <SCORE.INTRA.DIHEDRAL.0>
10.7811

>  <SCORE.INTRA.POLAR>
0

>  <SCORE.INTRA.POLAR.0>
0

>  <SCORE.INTRA.REPUL>
0

>  <SCORE.INTRA.REPUL.0>
0

>  <SCORE.INTRA.VDW>
0.48851

>  <SCORE.INTRA.VDW.0>
-0.812999

>  <SCORE.INTRA.norm>
-0.0868817

>  <SCORE.RESTR>
0

>  <SCORE.RESTR.CAVITY>
0

>  <SCORE.RESTR.norm>
0

>  <SCORE.SYSTEM>
-12.8241

>  <SCORE.SYSTEM.CONST>
0

>  <SCORE.SYSTEM.DIHEDRAL>
2.89051

>  <SCORE.SYSTEM.POLAR>
-3.62033

>  <SCORE.SYSTEM.VDW>
-1.96029

>  <SCORE.SYSTEM.norm>
-0.474968

>  <SCORE.heavy>
27

>  <SCORE.norm>
-1.72775

$$$$

  rDOCK(R)          3D
libRbt.so/2013.1/901 2013/11/27
 28 30  0  0  0  0  0  0  0  0999 V2000
   40.1452   15.5742   85.4566 C   0  0  0  0  0  0
   41.5401   15.5918   84.9675 C   0  0  0  0  0  0
   42.3750   16.3073   85.5836 O   0  0  0  0  0  0
   41.9917   14.8242   83.7815 C   0  0  0  0  0  0
   43.2853   15.0081   83.2791 C   0  0  0  0  0  0
   43.7405   14.3197   82.1309 C   0  0  0  0  0  0
   42.8794   13.3543   81.5267 C   0  0  0  0  0  0
   41.5586   13.2330   82.0107 C   0  0  0  0  0  0
   41.1225   13.9569   83.1161 C   0  0  0  0  0  0
   43.3090   12.5067   80.3195 C   0  0  0  0  0  0
   42.9304   11.0194   80.5314 C   0  0  0  0  0  0
   42.5853   13.0264   79.0562 C   0  0  0  0  0  0
   44.8428   12.5530   80.1095 C   0  0  0  0  0  0
   45.3979   13.9675   80.2225 C   0  0  0  0  0  0
   45.1698   14.5772   81.6282 C   0  0  0  0  0  0
   45.4436   16.0973   81.5065 C   0  0  0  0  0  0
   46.1740   13.9725   82.6362 C   0  0  0  0  0  0
   39.6382   16.5401   86.2372 C   0  0  0  0  0  0
   38.2418   16.5511   86.7385 C   0  0  0  0  0  0
   37.3878   15.4364   86.6356 C   0  0  0  0  0  0
   36.0760   15.4998   87.1160 C   0  0  0  0  0  0
   35.5866   16.6775   87.7066 C   0  0  0  0  0  0
   34.1963   16.7605   88.2172 C   0  0  0  0  0  0
   33.4944   15.7169   88.2917 O   0  0  0  0  0  0
   33.6280   17.9726   88.6079 O   0  0  0  0  0  0
   36.4312   17.7977   87.7831 C   0  0  0  0  0  0
   37.7421   17.7344   87.3033 C   0  0  0  0  0  0
   34.1224   18.8529   88.5431 H   0  0  0  0  0  0
  1  2  1  0  0  0
  2  3  2  0  0  0
  2  4  1  0  0  0
  4  5  2  0  0  0
  5  6  1  0  0  0
  6  7  2  0  0  0
  7  8  1  0  0  0
  8  9  2  0  0  0
  7 10  1  0  0  0
 10 11  1  0  0  0
 10 12  1  0  0  0
 10 13  1  0  0  0
 13 14  1  0  0  0
 14 15  1  0  0  0
 15 16  1  0  0  0
 15 17  1  0  0  0
  1 18  2  0  0  0
 18 19  1  0  0  0
 19 20  2  0  0  0
 20 21  1  0  0  0
 21 22  2  0  0  0
 22 23  1  0  0  0
 23 24  2  0  0  0
 23 25  1  0  0  0
 22 26  1  0  0  0
 26 27  2  0  0  0
  9  4  1  0  0  0
 27 19  1  0  0  0
 15  6  1  0  0  0
 25 28  1  0  0  0
M  END
>  <CHROM.0>
-159.44920563,-65.32350525,-64.94246145,176.07935339,65.36520681,-60.74061929
62.85060128,71.75714198

>  <CHROM.1>
20.17281077,172.44381400,11.41746339,9.66118312,1.49471276,40.61003196,15.06557696
84.16807569,-2.48031046,-0.26941703,-2.34773990

>  <Name>

>  <RI>
3.36268e+07

>  <Rbt.Current_Directory>
/extra/banzai2/j5wagner/CELPP/2016_10_17_rdock_implementation/normal_run/tutorialVideo/tutorial_rdock_implementation/full_week_run/4-docking/1fcz/LMCSS_1fcz_docking

>  <Rbt.Executable>
rbdock ($Id: //depot/dev/client3/rdock/2013.1/src/exe/rbdock.cxx#4 $)

>  <Rbt.Library>
libRbt.so (2013.1, Build901 2013/11/27)

>  <Rbt.Parameter_File>
/home/j5wagner/env_00/source/rDock/rDock_2013.1_src//data/scripts/dock.prm

>  <Rbt.Receptor>
/extra/banzai2/j5wagner/CELPP/2016_10_17_rdock_implementation/normal_run/tutorialVideo/tutorial_rdock_implementation/full_week_run/4-docking/1fcz/LMCSS_1fcz_tech_prep/rDockGridGenInput.prm

>  <SCORE>
-48.911

>  <SCORE.INTER>
-27.3322

>  <SCORE.INTER.CONST>
1

>  <SCORE.INTER.POLAR>
-2.04155

>  <SCORE.INTER.REPUL>
0

>  <SCORE.INTER.ROT>
4

>  <SCORE.INTER.VDW>
-29.7909

>  <SCORE.INTER.norm>
-1.0123

>  <SCORE.INTRA>
-3.36913

>  <SCORE.INTRA.DIHEDRAL>
-8.2803

>  <SCORE.INTRA.DIHEDRAL.0>
10.7811

>  <SCORE.INTRA.POLAR>
0

>  <SCORE.INTRA.POLAR.0>
0

>  <SCORE.INTRA.REPUL>
0

>  <SCORE.INTRA.REPUL.0>
0

>  <SCORE.INTRA.VDW>
0.771018

>  <SCORE.INTRA.VDW.0>
-0.812999

>  <SCORE.INTRA.norm>
-0.124783

>  <SCORE.RESTR>
0

>  <SCORE.RESTR.CAVITY>
0

>  <SCORE.RESTR.norm>
0

>  <SCORE.SYSTEM>
-18.2097

>  <SCORE.SYSTEM.CONST>
0

>  <SCORE.SYSTEM.DIHEDRAL>
1.62125

>  <SCORE.SYSTEM.POLAR>
-4.80515

>  <SCORE.SYSTEM.VDW>
-2.68277

>  <SCORE.SYSTEM.norm>
-0.674432

>  <SCORE.heavy>
27

>  <SCORE.norm>
-1.81152

$$$$

  rDOCK(R)          3D
libRbt.so/2013.1/901 2013/11/27
 28 30  0  0  0  0  0  0  0  0999 V2000
   38.6868   13.9822   85.0955 C   0  0  0  0  0  0
   39.7146   13.2323   84.3428 C   0  0  0  0  0  0
   39.5527   11.9912   84.1945 O   0  0  0  0  0  0
   40.9276   13.8694   83.7747 C   0  0  0  0  0  0
   41.5174   13.3457   82.6182 C   0  0  0  0  0  0
   42.6931   13.9050   82.0662 C   0  0  0  0  0  0
   43.2356   15.0826   82.6638 C   0  0  0  0  0  0
   42.6622   15.5539   83.8650 C   0  0  0  0  0  0
   41.5307   14.9563   84.4113 C   0  0  0  0  0  0
   44.4680   15.8031   82.0962 C   0  0  0  0  0  0
   44.2285   17.3324   82.0336 C   0  0  0  0  0  0
   45.6796   15.5291   83.0163 C   0  0  0  0  0  0
   44.7824   15.3394   80.6522 C   0  0  0  0  0  0
   44.7097   13.8246   80.5042 C   0  0  0  0  0  0
   43.2926   13.2732   80.7999 C   0  0  0  0  0  0
   43.4350   11.7394   80.9662 C   0  0  0  0  0  0
   42.3546   13.5565   79.6040 C   0  0  0  0  0  0
   38.6968   15.3193   85.2012 C   0  0  0  0  0  0
   37.6764   16.0981   85.9453 C   0  0  0  0  0  0
   36.5964   15.4922   86.6153 C   0  0  0  0  0  0
   35.6555   16.2713   87.2959 C   0  0  0  0  0  0
   35.7696   17.6719   87.3204 C   0  0  0  0  0  0
   34.7771   18.5113   88.0352 C   0  0  0  0  0  0
   34.9505   19.7569   88.1102 O   0  0  0  0  0  0
   33.6526   17.9590   88.6476 O   0  0  0  0  0  0
   36.8321   18.2764   86.6278 C   0  0  0  0  0  0
   37.7725   17.4980   85.9478 C   0  0  0  0  0  0
   33.4802   16.9625   88.6746 H   0  0  0  0  0  0
  1  2  1  0  0  0
  2  3  2  0  0  0
  2  4  1  0  0  0
  4  5  2  0  0  0
  5  6  1  0  0  0
  6  7  2  0  0  0
  7  8  1  0  0  0
  8  9  2  0  0  0
  7 10  1  0  0  0
 10 11  1  0  0  0
 10 12  1  0  0  0
 10 13  1  0  0  0
 13 14  1  0  0  0
 14 15  1  0  0  0
 15 16  1  0  0  0
 15 17  1  0  0  0
  1 18  2  0  0  0
 18 19  1  0  0  0
 19 20  2  0  0  0
 20 21  1  0  0  0
 21 22  2  0  0  0
 22 23  1  0  0  0
 23 24  2  0  0  0
 23 25  1  0  0  0
 22 26  1  0  0  0
 26 27  2  0  0  0
  9  4  1  0  0  0
 27 19  1  0  0  0
 15  6  1  0  0  0
 25 28  1  0  0  0
M  END
>  <CHROM.0>
-52.66229328,178.44130063,-65.07018594,67.33803544,-57.54044390,-60.07846600
-179.58328841,66.59567346

>  <CHROM.1>
-173.46963549,-150.32098037,0.09768981,175.60225303,3.01784862,40.20120108
15.39009239,84.16683587,2.64807597,0.51115769,0.31474417

>  <Name>

>  <RI>
3.36268e+07

>  <Rbt.Current_Directory>
/extra/banzai2/j5wagner/CELPP/2016_10_17_rdock_implementation/normal_run/tutorialVideo/tutorial_rdock_implementation/full_week_run/4-docking/1fcz/LMCSS_1fcz_docking

>  <Rbt.Executable>
rbdock ($Id: //depot/dev/client3/rdock/2013.1/src/exe/rbdock.cxx#4 $)

>  <Rbt.Library>
libRbt.so (2013.1, Build901 2013/11/27)

>  <Rbt.Parameter_File>
/home/j5wagner/env_00/source/rDock/rDock_2013.1_src//data/scripts/dock.prm

>  <Rbt.Receptor>
/extra/banzai2/j5wagner/CELPP/2016_10_17_rdock_implementation/normal_run/tutorialVideo/tutorial_rdock_implementation/full_week_run/4-docking/1fcz/LMCSS_1fcz_tech_prep/rDockGridGenInput.prm

>  <SCORE>
-47.3271

>  <SCORE.INTER>
-28.3237

>  <SCORE.INTER.CONST>
1

>  <SCORE.INTER.POLAR>
-1.14918

>  <SCORE.INTER.REPUL>
0

>  <SCORE.INTER.ROT>
4

>  <SCORE.INTER.VDW>
-33.8165

>  <SCORE.INTER.norm>
-1.04903

>  <SCORE.INTRA>
-2.70695

>  <SCORE.INTRA.DIHEDRAL>
-6.93248

>  <SCORE.INTRA.DIHEDRAL.0>
10.7811

>  <SCORE.INTRA.POLAR>
0

>  <SCORE.INTRA.POLAR.0>
0

>  <SCORE.INTRA.REPUL>
0

>  <SCORE.INTRA.REPUL.0>
0

>  <SCORE.INTRA.VDW>
0.759292

>  <SCORE.INTRA.VDW.0>
-0.812999

>  <SCORE.INTRA.norm>
-0.100257

>  <SCORE.RESTR>
0

>  <SCORE.RESTR.CAVITY>
0

>  <SCORE.RESTR.norm>
0

>  <SCORE.SYSTEM>
-16.2964

>  <SCORE.SYSTEM.CONST>
0

>  <SCORE.SYSTEM.DIHEDRAL>
3.68788

>  <SCORE.SYSTEM.POLAR>
-4.38302

>  <SCORE.SYSTEM.REPUL>
0.0989131

>  <SCORE.SYSTEM.VDW>
-3.73263

>  <SCORE.SYSTEM.norm>
-0.603571

>  <SCORE.heavy>
27

>  <SCORE.norm>
-1.75285

$$$$

  rDOCK(R)          3D
libRbt.so/2013.1/901 2013/11/27
 28 30  0  0  0  0  0  0  0  0999 V2000
   40.9932   16.3451   85.7799 C   0  0  0  0  0  0
   42.2738   16.0242   85.1146 C   0  0  0  0  0  0
   43.3208   16.5769   85.5469 O   0  0  0  0  0  0
   42.3761   15.1013   83.9581 C   0  0  0  0  0  0
   43.5872   14.9755   83.2674 C   0  0  0  0  0  0
   43.7144   14.1316   82.1399 C   0  0  0  0  0  0
   42.5968   13.3304   81.7563 C   0  0  0  0  0  0
   41.3688   13.5219   82.4265 C   0  0  0  0  0  0
   41.2605   14.3934   83.5057 C   0  0  0  0  0  0
   42.6586   12.3327   80.5896 C   0  0  0  0  0  0
   42.0306   10.9757   80.9949 C   0  0  0  0  0  0
   41.8660   12.9072   79.3932 C   0  0  0  0  0  0
   44.1201   12.0417   80.1676 C   0  0  0  0  0  0
   44.9548   13.3124   80.0653 C   0  0  0  0  0  0
   45.0714   14.0490   81.4232 C   0  0  0  0  0  0
   45.6184   15.4661   81.1180 C   0  0  0  0  0  0
   46.0794   13.3156   82.3377 C   0  0  0  0  0  0
   39.9784   15.4715   85.8592 C   0  0  0  0  0  0
   38.6849   15.7641   86.5245 C   0  0  0  0  0  0
   38.3102   17.0620   86.9217 C   0  0  0  0  0  0
   37.0828   17.2848   87.5537 C   0  0  0  0  0  0
   36.2038   16.2176   87.8060 C   0  0  0  0  0  0
   34.9003   16.4383   88.4787 C   0  0  0  0  0  0
   34.1156   15.4684   88.6548 O   0  0  0  0  0  0
   34.5027   17.7020   88.9143 O   0  0  0  0  0  0
   36.5916   14.9192   87.4342 C   0  0  0  0  0  0
   37.8179   14.6964   86.8026 C   0  0  0  0  0  0
   33.7614   17.8382   89.5892 H   0  0  0  0  0  0
  1  2  1  0  0  0
  2  3  2  0  0  0
  2  4  1  0  0  0
  4  5  2  0  0  0
  5  6  1  0  0  0
  6  7  2  0  0  0
  7  8  1  0  0  0
  8  9  2  0  0  0
  7 10  1  0  0  0
 10 11  1  0  0  0
 10 12  1  0  0  0
 10 13  1  0  0  0
 13 14  1  0  0  0
 14 15  1  0  0  0
 15 16  1  0  0  0
 15 17  1  0  0  0
  1 18  2  0  0  0
 18 19  1  0  0  0
 19 20  2  0  0  0
 20 21  1  0  0  0
 21 22  2  0  0  0
 22 23  1  0  0  0
 23 24  2  0  0  0
 23 25  1  0  0  0
 22 26  1  0  0  0
 26 27  2  0  0  0
  9  4  1  0  0  0
 27 19  1  0  0  0
 15  6  1  0  0  0
 25 28  1  0  0  0
M  END
>  <CHROM.0>
-158.55856428,57.95993727,-65.82301636,67.64655279,-177.57741336,-59.52794894
-177.71663595,66.90024849

>  <CHROM.1>
-149.48041291,171.69624699,11.87690788,177.84598717,-162.41146836,40.79776487
14.81182382,84.24747370,-2.44656003,-0.30394812,-2.32697496

>  <Name>

>  <RI>
3.36268e+07

>  <Rbt.Current_Directory>
/extra/banzai2/j5wagner/CELPP/2016_10_17_rdock_implementation/normal_run/tutorialVideo/tutorial_rdock_implementation/full_week_run/4-docking/1fcz/LMCSS_1fcz_docking

>  <Rbt.Executable>
rbdock ($Id: //depot/dev/client3/rdock/2013.1/src/exe/rbdock.cxx#4 $)

>  <Rbt.Library>
libRbt.so (2013.1, Build901 2013/11/27)

>  <Rbt.Parameter_File>
/home/j5wagner/env_00/source/rDock/rDock_2013.1_src//data/scripts/dock.prm

>  <Rbt.Receptor>
/extra/banzai2/j5wagner/CELPP/2016_10_17_rdock_implementation/normal_run/tutorialVideo/tutorial_rdock_implementation/full_week_run/4-docking/1fcz/LMCSS_1fcz_tech_prep/rDockGridGenInput.prm

>  <SCORE>
-41.967

>  <SCORE.INTER>
-21.3316

>  <SCORE.INTER.CONST>
1

>  <SCORE.INTER.POLAR>
-0.849853

>  <SCORE.INTER.REPUL>
0.127685

>  <SCORE.INTER.ROT>
4

>  <SCORE.INTER.VDW>
-28.4805

>  <SCORE.INTER.norm>
-0.790058

>  <SCORE.INTRA>
-1.1339

>  <SCORE.INTRA.DIHEDRAL>
-4.73284

>  <SCORE.INTRA.DIHEDRAL.0>
10.7811

>  <SCORE.INTRA.POLAR>
0

>  <SCORE.INTRA.POLAR.0>
0

>  <SCORE.INTRA.REPUL>
0

>  <SCORE.INTRA.REPUL.0>
0

>  <SCORE.INTRA.VDW>
1.23252

>  <SCORE.INTRA.VDW.0>
-0.812999

>  <SCORE.INTRA.norm>
-0.0419965

>  <SCORE.RESTR>
0

>  <SCORE.RESTR.CAVITY>
0

>  <SCORE.RESTR.norm>
0

>  <SCORE.SYSTEM>
-19.5015

>  <SCORE.SYSTEM.CONST>
0

>  <SCORE.SYSTEM.DIHEDRAL>
1.36705

>  <SCORE.SYSTEM.POLAR>
-4.95198

>  <SCORE.SYSTEM.VDW>
-3.34831

>  <SCORE.SYSTEM.norm>
-0.722278

>  <SCORE.heavy>
27

>  <SCORE.norm>
-1.55433

$$$$

  rDOCK(R)          3D
libRbt.so/2013.1/901 2013/11/27
 28 30  0  0  0  0  0  0  0  0999 V2000
   38.7090   13.9153   85.1643 C   0  0  0  0  0  0
   39.7493   13.1553   84.4394 C   0  0  0  0  0  0
   39.6067   11.9074   84.3348 O   0  0  0  0  0  0
   40.9532   13.7906   83.8503 C   0  0  0  0  0  0
   41.5116   13.2769   82.6739 C   0  0  0  0  0  0
   42.6780   13.8344   82.1009 C   0  0  0  0  0  0
   43.2431   15.0008   82.6997 C   0  0  0  0  0  0
   42.7019   15.4616   83.9197 C   0  0  0  0  0  0
   41.5792   14.8654   84.4854 C   0  0  0  0  0  0
   44.4671   15.7193   82.1116 C   0  0  0  0  0  0
   44.2375   17.2510   82.0731 C   0  0  0  0  0  0
   45.6981   15.4256   82.9993 C   0  0  0  0  0  0
   44.7438   15.2711   80.6551 C   0  0  0  0  0  0
   44.6565   13.7588   80.4907 C   0  0  0  0  0  0
   43.2427   13.2139   80.8133 C   0  0  0  0  0  0
   43.3777   11.6771   80.9577 C   0  0  0  0  0  0
   42.2789   13.5184   79.6435 C   0  0  0  0  0  0
   38.7171   15.2538   85.2514 C   0  0  0  0  0  0
   37.6843   16.0426   85.9674 C   0  0  0  0  0  0
   36.5923   15.4458   86.6262 C   0  0  0  0  0  0
   35.6401   16.2341   87.2800 C   0  0  0  0  0  0
   35.7547   17.6348   87.2884 C   0  0  0  0  0  0
   34.7503   18.4838   87.9747 C   0  0  0  0  0  0
   34.8518   19.7385   87.9219 O   0  0  0  0  0  0
   33.6932   17.9326   88.6981 O   0  0  0  0  0  0
   36.8296   18.2299   86.6067 C   0  0  0  0  0  0
   37.7813   17.4424   85.9535 C   0  0  0  0  0  0
   33.5950   16.9369   88.8475 H   0  0  0  0  0  0
  1  2  1  0  0  0
  2  3  2  0  0  0
  2  4  1  0  0  0
  4  5  2  0  0  0
  5  6  1  0  0  0
  6  7  2  0  0  0
  7  8  1  0  0  0
  8  9  2  0  0  0
  7 10  1  0  0  0
 10 11  1  0  0  0
 10 12  1  0  0  0
 10 13  1  0  0  0
 13 14  1  0  0  0
 14 15  1  0  0  0
 15 16  1  0  0  0
 15 17  1  0  0  0
  1 18  2  0  0  0
 18 19  1  0  0  0
 19 20  2  0  0  0
 20 21  1  0  0  0
 21 22  2  0  0  0
 22 23  1  0  0  0
 23 24  2  0  0  0
 23 25  1  0  0  0
 22 26  1  0  0  0
 26 27  2  0  0  0
  9  4  1  0  0  0
 27 19  1  0  0  0
 15  6  1  0  0  0
 25 28  1  0  0  0
M  END
>  <CHROM.0>
-160.18243705,59.97468119,-64.88225964,69.00714940,-57.69457143,-57.71638487
70.70684859,68.17890721

>  <CHROM.1>
-175.21620504,-146.99281948,0.01687573,-177.30555955,4.52694819,40.19636510
15.32791757,84.18606974,2.65872767,0.51818256,0.28769918

>  <Name>

>  <RI>
3.36268e+07

>  <Rbt.Current_Directory>
/extra/banzai2/j5wagner/CELPP/2016_10_17_rdock_implementation/normal_run/tutorialVideo/tutorial_rdock_implementation/full_week_run/4-docking/1fcz/LMCSS_1fcz_docking

>  <Rbt.Executable>
rbdock ($Id: //depot/dev/client3/rdock/2013.1/src/exe/rbdock.cxx#4 $)

>  <Rbt.Library>
libRbt.so (2013.1, Build901 2013/11/27)

>  <Rbt.Parameter_File>
/home/j5wagner/env_00/source/rDock/rDock_2013.1_src//data/scripts/dock.prm

>  <Rbt.Receptor>
/extra/banzai2/j5wagner/CELPP/2016_10_17_rdock_implementation/normal_run/tutorialVideo/tutorial_rdock_implementation/full_week_run/4-docking/1fcz/LMCSS_1fcz_tech_prep/rDockGridGenInput.prm

>  <SCORE>
-53.347

>  <SCORE.INTER>
-31.4079

>  <SCORE.INTER.CONST>
1

>  <SCORE.INTER.POLAR>
-1.93556

>  <SCORE.INTER.REPUL>
0

>  <SCORE.INTER.ROT>
4

>  <SCORE.INTER.VDW>
-34.227

>  <SCORE.INTER.norm>
-1.16326

>  <SCORE.INTRA>
-2.50124

>  <SCORE.INTRA.DIHEDRAL>
-6.30151

>  <SCORE.INTRA.DIHEDRAL.0>
10.7811

>  <SCORE.INTRA.POLAR>
0

>  <SCORE.INTRA.POLAR.0>
0

>  <SCORE.INTRA.REPUL>
0

>  <SCORE.INTRA.REPUL.0>
0

>  <SCORE.INTRA.VDW>
0.649514

>  <SCORE.INTRA.VDW.0>
-0.812999

>  <SCORE.INTRA.norm>
-0.0926386

>  <SCORE.RESTR>
0

>  <SCORE.RESTR.CAVITY>
0

>  <SCORE.RESTR.norm>
0

>  <SCORE.SYSTEM>
-19.4378

>  <SCORE.SYSTEM.CONST>
0

>  <SCORE.SYSTEM.DIHEDRAL>
1.9561

>  <SCORE.SYSTEM.POLAR>
-4.94161

>  <SCORE.SYSTEM.VDW>
-3.61442

>  <SCORE.SYSTEM.norm>
-0.71992

>  <SCORE.heavy>
27

>  <SCORE.norm>
-1.97582

$$$$

  rDOCK(R)          3D
libRbt.so/2013.1/901 2013/11/27
 28 30  0  0  0  0  0  0  0  0999 V2000
   38.4969   13.9780   85.1893 C   0  0  0  0  0  0
   39.5038   13.1626   84.4776 C   0  0  0  0  0  0
   39.3201   11.9173   84.4141 O   0  0  0  0  0  0
   40.7203   13.7399   83.8559 C   0  0  0  0  0  0
   41.2101   13.2137   82.6547 C   0  0  0  0  0  0
   42.3855   13.7153   82.0493 C   0  0  0  0  0  0
   43.0336   14.8403   82.6432 C   0  0  0  0  0  0
   42.5595   15.3120   83.8867 C   0  0  0  0  0  0
   41.4253   14.7696   84.4829 C   0  0  0  0  0  0
   44.2748   15.4996   82.0228 C   0  0  0  0  0  0
   44.1285   17.0419   82.0116 C   0  0  0  0  0  0
   45.5168   15.1264   82.8641 C   0  0  0  0  0  0
   44.4776   15.0583   80.5521 C   0  0  0  0  0  0
   44.3019   13.5555   80.3715 C   0  0  0  0  0  0
   42.8719   13.0837   80.7353 C   0  0  0  0  0  0
   42.9271   11.5400   80.8555 C   0  0  0  0  0  0
   41.8877   13.4573   79.6031 C   0  0  0  0  0  0
   38.5908   15.3115   85.3004 C   0  0  0  0  0  0
   37.5935   16.1554   86.0038 C   0  0  0  0  0  0
   37.6929   17.5586   86.0660 C   0  0  0  0  0  0
   36.7311   18.3092   86.7493 C   0  0  0  0  0  0
   35.6508   17.6764   87.3880 C   0  0  0  0  0  0
   34.6251   18.4594   88.1196 C   0  0  0  0  0  0
   33.7175   17.8602   88.7557 O   0  0  0  0  0  0
   34.6227   19.8539   88.1140 O   0  0  0  0  0  0
   35.5686   16.2743   87.3487 C   0  0  0  0  0  0
   36.5295   15.5241   86.6659 C   0  0  0  0  0  0
   35.3161   20.3986   87.6180 H   0  0  0  0  0  0
  1  2  1  0  0  0
  2  3  2  0  0  0
  2  4  1  0  0  0
  4  5  2  0  0  0
  5  6  1  0  0  0
  6  7  2  0  0  0
  7  8  1  0  0  0
  8  9  2  0  0  0
  7 10  1  0  0  0
 10 11  1  0  0  0
 10 12  1  0  0  0
 10 13  1  0  0  0
 13 14  1  0  0  0
 14 15  1  0  0  0
 15 16  1  0  0  0
 15 17  1  0  0  0
  1 18  2  0  0  0
 18 19  1  0  0  0
 19 20  2  0  0  0
 20 21  1  0  0  0
 21 22  2  0  0  0
 22 23  1  0  0  0
 23 24  2  0  0  0
 23 25  1  0  0  0
 22 26  1  0  0  0
 26 27  2  0  0  0
  9  4  1  0  0  0
 27 19  1  0  0  0
 15  6  1  0  0  0
 25 28  1  0  0  0
M  END
>  <CHROM.0>
7.77417691,59.01897317,-64.10412073,66.94524558,60.52384214,62.40965288,61.11026790
69.90495111

>  <CHROM.1>
-179.22072229,-143.82620938,-177.75466519,-175.36128243,-0.22082650,40.00156989
15.28100032,84.18990828,2.61633960,0.52407706,0.31381164

>  <Name>

>  <RI>
3.36268e+07

>  <Rbt.Current_Directory>
/extra/banzai2/j5wagner/CELPP/2016_10_17_rdock_implementation/normal_run/tutorialVideo/tutorial_rdock_implementation/full_week_run/4-docking/1fcz/LMCSS_1fcz_docking

>  <Rbt.Executable>
rbdock ($Id: //depot/dev/client3/rdock/2013.1/src/exe/rbdock.cxx#4 $)

>  <Rbt.Library>
libRbt.so (2013.1, Build901 2013/11/27)

>  <Rbt.Parameter_File>
/home/j5wagner/env_00/source/rDock/rDock_2013.1_src//data/scripts/dock.prm

>  <Rbt.Receptor>
/extra/banzai2/j5wagner/CELPP/2016_10_17_rdock_implementation/normal_run/tutorialVideo/tutorial_rdock_implementation/full_week_run/4-docking/1fcz/LMCSS_1fcz_tech_prep/rDockGridGenInput.prm

>  <SCORE>
-52.035

>  <SCORE.INTER>
-33.9161

>  <SCORE.INTER.CONST>
1

>  <SCORE.INTER.POLAR>
-2.64909

>  <SCORE.INTER.REPUL>
0

>  <SCORE.INTER.ROT>
4

>  <SCORE.INTER.VDW>
-34.3092

>  <SCORE.INTER.norm>
-1.25615

>  <SCORE.INTRA>
-2.04868

>  <SCORE.INTRA.DIHEDRAL>
-5.79795

>  <SCORE.INTRA.DIHEDRAL.0>
10.7811

>  <SCORE.INTRA.POLAR>
0

>  <SCORE.INTRA.POLAR.0>
0

>  <SCORE.INTRA.REPUL>
0

>  <SCORE.INTRA.REPUL.0>
0

>  <SCORE.INTRA.VDW>
0.850294

>  <SCORE.INTRA.VDW.0>
-0.812999

>  <SCORE.INTRA.norm>
-0.075877

>  <SCORE.RESTR>
0

>  <SCORE.RESTR.CAVITY>
0

>  <SCORE.RESTR.norm>
0

>  <SCORE.SYSTEM>
-16.0702

>  <SCORE.SYSTEM.CONST>
0

>  <SCORE.SYSTEM.DIHEDRAL>
0.904305

>  <SCORE.SYSTEM.POLAR>
-4.36964

>  <SCORE.SYSTEM.REPUL>
0.202354

>  <SCORE.SYSTEM.VDW>
-2.67738

>  <SCORE.SYSTEM.norm>
-0.595194

>  <SCORE.heavy>
27

>  <SCORE.norm>
-1.92722

$$$$

  rDOCK(R)          3D
libRbt.so/2013.1/901 2013/11/27
 28 30  0  0  0  0  0  0  0  0999 V2000
   38.6367   13.9997   85.1857 C   0  0  0  0  0  0
   39.6296   13.1888   84.4495 C   0  0  0  0  0  0
   39.4370   11.9459   84.3691 O   0  0  0  0  0  0
   40.8424   13.7679   83.8221 C   0  0  0  0  0  0
   41.3276   13.2419   82.6189 C   0  0  0  0  0  0
   42.4994   13.7451   82.0080 C   0  0  0  0  0  0
   43.1483   14.8715   82.5984 C   0  0  0  0  0  0
   42.6790   15.3431   83.8438 C   0  0  0  0  0  0
   41.5485   14.7991   84.4453 C   0  0  0  0  0  0
   44.3856   15.5326   81.9721 C   0  0  0  0  0  0
   44.2366   17.0747   81.9608 C   0  0  0  0  0  0
   45.6320   15.1620   82.8080 C   0  0  0  0  0  0
   44.5826   15.0908   80.5008 C   0  0  0  0  0  0
   44.4086   13.5877   80.3217 C   0  0  0  0  0  0
   42.9810   13.1137   80.6922 C   0  0  0  0  0  0
   43.0394   11.5701   80.8129 C   0  0  0  0  0  0
   41.9911   13.4850   79.5642 C   0  0  0  0  0  0
   38.6930   15.3386   85.2431 C   0  0  0  0  0  0
   37.7084   16.1778   85.9696 C   0  0  0  0  0  0
   37.8221   17.5784   86.0594 C   0  0  0  0  0  0
   36.8718   18.3244   86.7636 C   0  0  0  0  0  0
   35.7892   17.6895   87.3961 C   0  0  0  0  0  0
   34.7756   18.4675   88.1497 C   0  0  0  0  0  0
   34.8841   19.7200   88.2328 O   0  0  0  0  0  0
   33.7018   17.8497   88.7900 O   0  0  0  0  0  0
   35.6928   16.2893   87.3290 C   0  0  0  0  0  0
   36.6422   15.5437   86.6253 C   0  0  0  0  0  0
   33.5919   16.8446   88.8239 H   0  0  0  0  0  0
  1  2  1  0  0  0
  2  3  2  0  0  0
  2  4  1  0  0  0
  4  5  2  0  0  0
  5  6  1  0  0  0
  6  7  2  0  0  0
  7  8  1  0  0  0
  8  9  2  0  0  0
  7 10  1  0  0  0
 10 11  1  0  0  0
 10 12  1  0  0  0
 10 13  1  0  0  0
 13 14  1  0  0  0
 14 15  1  0  0  0
 15 16  1  0  0  0
 15 17  1  0  0  0
  1 18  2  0  0  0
 18 19  1  0  0  0
 19 20  2  0  0  0
 20 21  1  0  0  0
 21 22  2  0  0  0
 22 23  1  0  0  0
 23 24  2  0  0  0
 23 25  1  0  0  0
 22 26  1  0  0  0
 26 27  2  0  0  0
  9  4  1  0  0  0
 27 19  1  0  0  0
 15  6  1  0  0  0
 25 28  1  0  0  0
M  END
>  <CHROM.0>
16.31269063,177.98949291,-64.93851499,67.06375447,-60.28249760,-178.37427118
177.93967234,71.14449400

>  <CHROM.1>
-174.77019444,-144.93927144,177.32348071,-0.29536836,3.99909199,40.11547254
15.28853522,84.17017870,2.61440049,0.52379954,0.33412583

>  <Name>

>  <RI>
3.36268e+07

>  <Rbt.Current_Directory>
/extra/banzai2/j5wagner/CELPP/2016_10_17_rdock_implementation/normal_run/tutorialVideo/tutorial_rdock_implementation/full_week_run/4-docking/1fcz/LMCSS_1fcz_docking

>  <Rbt.Executable>
rbdock ($Id: //depot/dev/client3/rdock/2013.1/src/exe/rbdock.cxx#4 $)

>  <Rbt.Library>
libRbt.so (2013.1, Build901 2013/11/27)

>  <Rbt.Parameter_File>
/home/j5wagner/env_00/source/rDock/rDock_2013.1_src//data/scripts/dock.prm

>  <Rbt.Receptor>
/extra/banzai2/j5wagner/CELPP/2016_10_17_rdock_implementation/normal_run/tutorialVideo/tutorial_rdock_implementation/full_week_run/4-docking/1fcz/LMCSS_1fcz_tech_prep/rDockGridGenInput.prm

>  <SCORE>
-46.6993

>  <SCORE.INTER>
-28.436

>  <SCORE.INTER.CONST>
1

>  <SCORE.INTER.POLAR>
-1.01134

>  <SCORE.INTER.REPUL>
0

>  <SCORE.INTER.ROT>
4

>  <SCORE.INTER.VDW>
-34.3974

>  <SCORE.INTER.norm>
-1.05319

>  <SCORE.INTRA>
-2.11378

>  <SCORE.INTRA.DIHEDRAL>
-5.89698

>  <SCORE.INTRA.DIHEDRAL.0>
10.7811

>  <SCORE.INTRA.POLAR>
0

>  <SCORE.INTRA.POLAR.0>
0

>  <SCORE.INTRA.REPUL>
0

>  <SCORE.INTRA.REPUL.0>
0

>  <SCORE.INTRA.VDW>
0.834708

>  <SCORE.INTRA.VDW.0>
-0.812999

>  <SCORE.INTRA.norm>
-0.0782882

>  <SCORE.RESTR>
0

>  <SCORE.RESTR.CAVITY>
0

>  <SCORE.RESTR.norm>
0

>  <SCORE.SYSTEM>
-16.1495

>  <SCORE.SYSTEM.CONST>
0

>  <SCORE.SYSTEM.DIHEDRAL>
1.36996

>  <SCORE.SYSTEM.POLAR>
-4.38062

>  <SCORE.SYSTEM.REPUL>
0.202354

>  <SCORE.SYSTEM.VDW>
-2.95213

>  <SCORE.SYSTEM.norm>
-0.598129

>  <SCORE.heavy>
27

>  <SCORE.norm>
-1.7296

$$$$

  rDOCK(R)          3D
libRbt.so/2013.1/901 2013/11/27
 28 30  0  0  0  0  0  0  0  0999 V2000
   38.7254   13.9404   85.1810 C   0  0  0  0  0  0
   39.7514   13.1901   84.4263 C   0  0  0  0  0  0
   39.6106   11.9426   84.3146 O   0  0  0  0  0  0
   40.9394   13.8345   83.8153 C   0  0  0  0  0  0
   41.4827   13.3222   82.6312 C   0  0  0  0  0  0
   42.6342   13.8885   82.0371 C   0  0  0  0  0  0
   43.1987   15.0618   82.6229 C   0  0  0  0  0  0
   42.6737   15.5214   83.8504 C   0  0  0  0  0  0
   41.5662   14.9168   84.4367 C   0  0  0  0  0  0
   44.4060   15.7896   82.0123 C   0  0  0  0  0  0
   44.1619   17.3190   81.9732 C   0  0  0  0  0  0
   45.6543   15.5098   82.8801 C   0  0  0  0  0  0
   44.6624   15.3394   80.5527 C   0  0  0  0  0  0
   44.5861   13.8259   80.3941 C   0  0  0  0  0  0
   43.1829   13.2692   80.7420 C   0  0  0  0  0  0
   43.3342   11.7342   80.8886 C   0  0  0  0  0  0
   42.1969   13.5614   79.5877 C   0  0  0  0  0  0
   38.7007   15.2804   85.2357 C   0  0  0  0  0  0
   37.6810   16.0595   85.9805 C   0  0  0  0  0  0
   36.6277   15.4514   86.6900 C   0  0  0  0  0  0
   35.6861   16.2306   87.3696 C   0  0  0  0  0  0
   35.7728   17.6333   87.3536 C   0  0  0  0  0  0
   34.7791   18.4726   88.0667 C   0  0  0  0  0  0
   34.9235   19.7239   88.0952 O   0  0  0  0  0  0
   33.6853   17.9149   88.7279 O   0  0  0  0  0  0
   36.8081   18.2389   86.6219 C   0  0  0  0  0  0
   37.7492   17.4605   85.9429 C   0  0  0  0  0  0
   33.5237   16.9170   88.7694 H   0  0  0  0  0  0
  1  2  1  0  0  0
  2  3  2  0  0  0
  2  4  1  0  0  0
  4  5  2  0  0  0
  5  6  1  0  0  0
  6  7  2  0  0  0
  7  8  1  0  0  0
  8  9  2  0  0  0
  7 10  1  0  0  0
 10 11  1  0  0  0
 10 12  1  0  0  0
 10 13  1  0  0  0
 13 14  1  0  0  0
 14 15  1  0  0  0
 15 16  1  0  0  0
 15 17  1  0  0  0
  1 18  2  0  0  0
 18 19  1  0  0  0
 19 20  2  0  0  0
 20 21  1  0  0  0
 21 22  2  0  0  0
 22 23  1  0  0  0
 23 24  2  0  0  0
 23 25  1  0  0  0
 22 26  1  0  0  0
 26 27  2  0  0  0
  9  4  1  0  0  0
 27 19  1  0  0  0
 15  6  1  0  0  0
 25 28  1  0  0  0
M  END
>  <CHROM.0>
-158.75836504,58.15299091,-64.92025346,66.15014342,-176.92369714,63.48675791
-179.60726111,71.72732454

>  <CHROM.1>
-172.52559243,-147.79429058,-0.80970814,176.15996130,1.14139175,40.17572080
15.36294418,84.16563343,2.66014267,0.53622935,0.28965989

>  <Name>

>  <RI>
3.36268e+07

>  <Rbt.Current_Directory>
/extra/banzai2/j5wagner/CELPP/2016_10_17_rdock_implementation/normal_run/tutorialVideo/tutorial_rdock_implementation/full_week_run/4-docking/1fcz/LMCSS_1fcz_docking

>  <Rbt.Executable>
rbdock ($Id: //depot/dev/client3/rdock/2013.1/src/exe/rbdock.cxx#4 $)

>  <Rbt.Library>
libRbt.so (2013.1, Build901 2013/11/27)

>  <Rbt.Parameter_File>
/home/j5wagner/env_00/source/rDock/rDock_2013.1_src//data/scripts/dock.prm

>  <Rbt.Receptor>
/extra/banzai2/j5wagner/CELPP/2016_10_17_rdock_implementation/normal_run/tutorialVideo/tutorial_rdock_implementation/full_week_run/4-docking/1fcz/LMCSS_1fcz_tech_prep/rDockGridGenInput.prm

>  <SCORE>
-50.421

>  <SCORE.INTER>
-28.3553

>  <SCORE.INTER.CONST>
1

>  <SCORE.INTER.POLAR>
-1.08501

>  <SCORE.INTER.REPUL>
0

>  <SCORE.INTER.ROT>
4

>  <SCORE.INTER.VDW>
-34.0662

>  <SCORE.INTER.norm>
-1.0502

>  <SCORE.INTRA>
-2.59531

>  <SCORE.INTRA.DIHEDRAL>
-6.45956

>  <SCORE.INTRA.DIHEDRAL.0>
10.7811

>  <SCORE.INTRA.POLAR>
0

>  <SCORE.INTRA.POLAR.0>
0

>  <SCORE.INTRA.REPUL>
0

>  <SCORE.INTRA.REPUL.0>
0

>  <SCORE.INTRA.VDW>
0.634473

>  <SCORE.INTRA.VDW.0>
-0.812999

>  <SCORE.INTRA.norm>
-0.0961225

>  <SCORE.RESTR>
0

>  <SCORE.RESTR.CAVITY>
0

>  <SCORE.RESTR.norm>
0

>  <SCORE.SYSTEM>
-19.4704

>  <SCORE.SYSTEM.CONST>
0

>  <SCORE.SYSTEM.DIHEDRAL>
1.64538

>  <SCORE.SYSTEM.POLAR>
-4.93361

>  <SCORE.SYSTEM.VDW>
-3.51879

>  <SCORE.SYSTEM.norm>
-0.721125

>  <SCORE.heavy>
27

>  <SCORE.norm>
-1.86744

$$$$

  rDOCK(R)          3D
libRbt.so/2013.1/901 2013/11/27
 28 30  0  0  0  0  0  0  0  0999 V2000
   38.5857   13.9773   85.1980 C   0  0  0  0  0  0
   39.5643   13.1495   84.4615 C   0  0  0  0  0  0
   39.3422   11.9124   84.3677 O   0  0  0  0  0  0
   40.7956   13.7048   83.8488 C   0  0  0  0  0  0
   41.2891   13.1644   82.6554 C   0  0  0  0  0  0
   42.4779   13.6446   82.0590 C   0  0  0  0  0  0
   43.1371   14.7631   82.6530 C   0  0  0  0  0  0
   42.6580   15.2490   83.8891 C   0  0  0  0  0  0
   41.5099   14.7273   84.4770 C   0  0  0  0  0  0
   44.3943   15.4000   82.0414 C   0  0  0  0  0  0
   44.2715   16.9443   82.0202 C   0  0  0  0  0  0
   45.6221   15.0129   82.8971 C   0  0  0  0  0  0
   44.6049   14.9472   80.5753 C   0  0  0  0  0  0
   44.4082   13.4463   80.4014 C   0  0  0  0  0  0
   42.9677   12.9983   80.7535 C   0  0  0  0  0  0
   42.9982   11.4546   80.8828 C   0  0  0  0  0  0
   42.0005   13.3802   79.6095 C   0  0  0  0  0  0
   38.6480   15.3168   85.2308 C   0  0  0  0  0  0
   37.6776   16.1727   85.9569 C   0  0  0  0  0  0
   37.7647   17.5780   85.9713 C   0  0  0  0  0  0
   36.8297   18.3404   86.6784 C   0  0  0  0  0  0
   35.7893   17.7177   87.3890 C   0  0  0  0  0  0
   34.7925   18.5133   88.1465 C   0  0  0  0  0  0
   33.8255   17.9327   88.7079 O   0  0  0  0  0  0
   34.8825   19.9013   88.2463 O   0  0  0  0  0  0
   35.7204   16.3143   87.3966 C   0  0  0  0  0  0
   36.6545   15.5523   86.6899 C   0  0  0  0  0  0
   34.2524   20.4492   88.8175 H   0  0  0  0  0  0
  1  2  1  0  0  0
  2  3  2  0  0  0
  2  4  1  0  0  0
  4  5  2  0  0  0
  5  6  1  0  0  0
  6  7  2  0  0  0
  7  8  1  0  0  0
  8  9  2  0  0  0
  7 10  1  0  0  0
 10 11  1  0  0  0
 10 12  1  0  0  0
 10 13  1  0  0  0
 13 14  1  0  0  0
 14 15  1  0  0  0
 15 16  1  0  0  0
 15 17  1  0  0  0
  1 18  2  0  0  0
 18 19  1  0  0  0
 19 20  2  0  0  0
 20 21  1  0  0  0
 21 22  2  0  0  0
 22 23  1  0  0  0
 23 24  2  0  0  0
 23 25  1  0  0  0
 22 26  1  0  0  0
 26 27  2  0  0  0
  9  4  1  0  0  0
 27 19  1  0  0  0
 15  6  1  0  0  0
 25 28  1  0  0  0
M  END
>  <CHROM.0>
-159.19349037,179.83044939,-63.58309094,69.26302222,-177.69023024,-56.98652848
62.21510039,72.45713185

>  <CHROM.1>
-172.43287320,-145.95995565,-179.80981494,175.78460953,-175.13970021,40.10455109
15.25217027,84.19491205,2.59428288,0.51261038,0.33193575

>  <Name>

>  <RI>
3.36268e+07

>  <Rbt.Current_Directory>
/extra/banzai2/j5wagner/CELPP/2016_10_17_rdock_implementation/normal_run/tutorialVideo/tutorial_rdock_implementation/full_week_run/4-docking/1fcz/LMCSS_1fcz_docking

>  <Rbt.Executable>
rbdock ($Id: //depot/dev/client3/rdock/2013.1/src/exe/rbdock.cxx#4 $)

>  <Rbt.Library>
libRbt.so (2013.1, Build901 2013/11/27)

>  <Rbt.Parameter_File>
/home/j5wagner/env_00/source/rDock/rDock_2013.1_src//data/scripts/dock.prm

>  <Rbt.Receptor>
/extra/banzai2/j5wagner/CELPP/2016_10_17_rdock_implementation/normal_run/tutorialVideo/tutorial_rdock_implementation/full_week_run/4-docking/1fcz/LMCSS_1fcz_tech_prep/rDockGridGenInput.prm

>  <SCORE>
-50.214

>  <SCORE.INTER>
-28.7835

>  <SCORE.INTER.CONST>
1

>  <SCORE.INTER.POLAR>
-1.45086

>  <SCORE.INTER.REPUL>
0

>  <SCORE.INTER.ROT>
4

>  <SCORE.INTER.VDW>
-33.2506

>  <SCORE.INTER.norm>
-1.06606

>  <SCORE.INTRA>
-2.08987

>  <SCORE.INTRA.DIHEDRAL>
-5.87573

>  <SCORE.INTRA.DIHEDRAL.0>
10.7811

>  <SCORE.INTRA.POLAR>
0

>  <SCORE.INTRA.POLAR.0>
0

>  <SCORE.INTRA.REPUL>
0

>  <SCORE.INTRA.REPUL.0>
0

>  <SCORE.INTRA.VDW>
0.847989

>  <SCORE.INTRA.VDW.0>
-0.812999

>  <SCORE.INTRA.norm>
-0.0774027

>  <SCORE.RESTR>
0

>  <SCORE.RESTR.CAVITY>
0

>  <SCORE.RESTR.norm>
0

>  <SCORE.SYSTEM>
-19.3406

>  <SCORE.SYSTEM.CONST>
0

>  <SCORE.SYSTEM.DIHEDRAL>
1.87417

>  <SCORE.SYSTEM.POLAR>
-4.93783

>  <SCORE.SYSTEM.VDW>
-3.48907

>  <SCORE.SYSTEM.norm>
-0.716319

>  <SCORE.heavy>
27

>  <SCORE.norm>
-1.85978

$$$$

  rDOCK(R)          3D
libRbt.so/2013.1/901 2013/11/27
 28 30  0  0  0  0  0  0  0  0999 V2000
   38.7064   13.9068   85.1459 C   0  0  0  0  0  0
   39.7390   13.1457   84.4112 C   0  0  0  0  0  0
   39.5891   11.8993   84.2996 O   0  0  0  0  0  0
   40.9433   13.7782   83.8201 C   0  0  0  0  0  0
   41.5086   13.2527   82.6521 C   0  0  0  0  0  0
   42.6756   13.8075   82.0778 C   0  0  0  0  0  0
   43.2343   14.9826   82.6654 C   0  0  0  0  0  0
   42.6862   15.4556   83.8776 C   0  0  0  0  0  0
   41.5631   14.8623   84.4454 C   0  0  0  0  0  0
   44.4585   15.6984   82.0743 C   0  0  0  0  0  0
   44.2241   17.2287   82.0171 C   0  0  0  0  0  0
   45.6866   15.4190   82.9707 C   0  0  0  0  0  0
   44.7431   15.2342   80.6244 C   0  0  0  0  0  0
   44.6614   13.7198   80.4771 C   0  0  0  0  0  0
   43.2480   13.1740   80.7999 C   0  0  0  0  0  0
   43.3874   11.6395   80.9627 C   0  0  0  0  0  0
   42.2883   13.4617   79.6225 C   0  0  0  0  0  0
   38.7146   15.2455   85.2298 C   0  0  0  0  0  0
   37.6895   16.0354   85.9555 C   0  0  0  0  0  0
   36.5917   15.4411   86.6068 C   0  0  0  0  0  0
   35.6471   16.2304   87.2704 C   0  0  0  0  0  0
   35.7752   17.6298   87.2961 C   0  0  0  0  0  0
   34.7791   18.4799   87.9928 C   0  0  0  0  0  0
   34.9687   19.7225   88.0783 O   0  0  0  0  0  0
   33.6332   17.9410   88.5768 O   0  0  0  0  0  0
   36.8559   18.2227   86.6218 C   0  0  0  0  0  0
   37.8000   17.4342   85.9588 C   0  0  0  0  0  0
   33.4452   16.9471   88.5933 H   0  0  0  0  0  0
  1  2  1  0  0  0
  2  3  2  0  0  0
  2  4  1  0  0  0
  4  5  2  0  0  0
  5  6  1  0  0  0
  6  7  2  0  0  0
  7  8  1  0  0  0
  8  9  2  0  0  0
  7 10  1  0  0  0
 10 11  1  0  0  0
 10 12  1  0  0  0
 10 13  1  0  0  0
 13 14  1  0  0  0
 14 15  1  0  0  0
 15 16  1  0  0  0
 15 17  1  0  0  0
  1 18  2  0  0  0
 18 19  1  0  0  0
 19 20  2  0  0  0
 20 21  1  0  0  0
 21 22  2  0  0  0
 22 23  1  0  0  0
 23 24  2  0  0  0
 23 25  1  0  0  0
 22 26  1  0  0  0
 26 27  2  0  0  0
  9  4  1  0  0  0
 27 19  1  0  0  0
 15  6  1  0  0  0
 25 28  1  0  0  0
M  END
>  <CHROM.0>
-162.38982997,-62.05953244,-64.90190266,175.06332361,62.06342426,-178.77242271
67.27293744,70.99133880

>  <CHROM.1>
-174.51691774,-148.24407967,-1.20157611,175.09961544,2.91577476,40.19867154
15.31177582,84.16893316,2.64992847,0.51597282,0.29891471

>  <Name>

>  <RI>
3.36268e+07

>  <Rbt.Current_Directory>
/extra/banzai2/j5wagner/CELPP/2016_10_17_rdock_implementation/normal_run/tutorialVideo/tutorial_rdock_implementation/full_week_run/4-docking/1fcz/LMCSS_1fcz_docking

>  <Rbt.Executable>
rbdock ($Id: //depot/dev/client3/rdock/2013.1/src/exe/rbdock.cxx#4 $)

>  <Rbt.Library>
libRbt.so (2013.1, Build901 2013/11/27)

>  <Rbt.Parameter_File>
/home/j5wagner/env_00/source/rDock/rDock_2013.1_src//data/scripts/dock.prm

>  <Rbt.Receptor>
/extra/banzai2/j5wagner/CELPP/2016_10_17_rdock_implementation/normal_run/tutorialVideo/tutorial_rdock_implementation/full_week_run/4-docking/1fcz/LMCSS_1fcz_tech_prep/rDockGridGenInput.prm

>  <SCORE>
-52.3724

>  <SCORE.INTER>
-31.4778

>  <SCORE.INTER.CONST>
1

>  <SCORE.INTER.POLAR>
-2.00894

>  <SCORE.INTER.REPUL>
0

>  <SCORE.INTER.ROT>
4

>  <SCORE.INTER.VDW>
-34.0474

>  <SCORE.INTER.norm>
-1.16584

>  <SCORE.INTRA>
-2.58768

>  <SCORE.INTRA.DIHEDRAL>
-6.54793

>  <SCORE.INTRA.DIHEDRAL.0>
10.7811

>  <SCORE.INTRA.POLAR>
0

>  <SCORE.INTRA.POLAR.0>
0

>  <SCORE.INTRA.REPUL>
0

>  <SCORE.INTRA.REPUL.0>
0

>  <SCORE.INTRA.VDW>
0.686287

>  <SCORE.INTRA.VDW.0>
-0.812999

>  <SCORE.INTRA.norm>
-0.09584

>  <SCORE.RESTR>
0

>  <SCORE.RESTR.CAVITY>
0

>  <SCORE.RESTR.norm>
0

>  <SCORE.SYSTEM>
-18.307

>  <SCORE.SYSTEM.CONST>
0

>  <SCORE.SYSTEM.DIHEDRAL>
1.53342

>  <SCORE.SYSTEM.POLAR>
-4.7788

>  <SCORE.SYSTEM.VDW>
-2.82575

>  <SCORE.SYSTEM.norm>
-0.678035

>  <SCORE.heavy>
27

>  <SCORE.norm>
-1.93972

$$$$

  rDOCK(R)          3D
libRbt.so/2013.1/901 2013/11/27
 28 30  0  0  0  0  0  0  0  0999 V2000
   38.6100   14.0463   85.1319 C   0  0  0  0  0  0
   39.6084   13.2232   84.4171 C   0  0  0  0  0  0
   39.4088   11.9809   84.3436 O   0  0  0  0  0  0
   40.8342   13.7894   83.8034 C   0  0  0  0  0  0
   41.3293   13.2560   82.6075 C   0  0  0  0  0  0
   42.5132   13.7467   82.0100 C   0  0  0  0  0  0
   43.1652   14.8684   82.6057 C   0  0  0  0  0  0
   42.6851   15.3474   83.8442 C   0  0  0  0  0  0
   41.5422   14.8154   84.4329 C   0  0  0  0  0  0
   44.4164   15.5164   81.9933 C   0  0  0  0  0  0
   44.2820   17.0598   81.9766 C   0  0  0  0  0  0
   45.6488   15.1361   82.8454 C   0  0  0  0  0  0
   44.6273   15.0693   80.5255 C   0  0  0  0  0  0
   44.4414   13.5674   80.3478 C   0  0  0  0  0  0
   43.0050   13.1077   80.7017 C   0  0  0  0  0  0
   43.0474   11.5639   80.8266 C   0  0  0  0  0  0
   42.0326   13.4855   79.5607 C   0  0  0  0  0  0
   38.6827   15.3843   85.1926 C   0  0  0  0  0  0
   37.6932   16.2356   85.8979 C   0  0  0  0  0  0
   37.8129   17.6365   85.9752 C   0  0  0  0  0  0
   36.8575   18.3942   86.6597 C   0  0  0  0  0  0
   35.7636   17.7711   87.2844 C   0  0  0  0  0  0
   34.7444   18.5617   88.0170 C   0  0  0  0  0  0
   34.8889   19.8073   88.1394 O   0  0  0  0  0  0
   33.6257   17.9627   88.5952 O   0  0  0  0  0  0
   35.6608   16.3708   87.2300 C   0  0  0  0  0  0
   36.6153   15.6134   86.5460 C   0  0  0  0  0  0
   33.4653   16.9642   88.5662 H   0  0  0  0  0  0
  1  2  1  0  0  0
  2  3  2  0  0  0
  2  4  1  0  0  0
  4  5  2  0  0  0
  5  6  1  0  0  0
  6  7  2  0  0  0
  7  8  1  0  0  0
  8  9  2  0  0  0
  7 10  1  0  0  0
 10 11  1  0  0  0
 10 12  1  0  0  0
 10 13  1  0  0  0
 13 14  1  0  0  0
 14 15  1  0  0  0
 15 16  1  0  0  0
 15 17  1  0  0  0
  1 18  2  0  0  0
 18 19  1  0  0  0
 19 20  2  0  0  0
 20 21  1  0  0  0
 21 22  2  0  0  0
 22 23  1  0  0  0
 23 24  2  0  0  0
 23 25  1  0  0  0
 22 26  1  0  0  0
 26 27  2  0  0  0
  9  4  1  0  0  0
 27 19  1  0  0  0
 15  6  1  0  0  0
 25 28  1  0  0  0
M  END
>  <CHROM.0>
-160.43832214,56.78306468,-65.28119697,67.51719616,-60.50280923,59.04175516
178.25298526,69.81324417

>  <CHROM.1>
-175.55898526,-144.54992377,178.29787903,-3.40211489,1.63814754,40.11359122
15.31908833,84.13160611,2.60997459,0.50676200,0.33284630

>  <Name>

>  <RI>
3.36268e+07

>  <Rbt.Current_Directory>
/extra/banzai2/j5wagner/CELPP/2016_10_17_rdock_implementation/normal_run/tutorialVideo/tutorial_rdock_implementation/full_week_run/4-docking/1fcz/LMCSS_1fcz_docking

>  <Rbt.Executable>
rbdock ($Id: //depot/dev/client3/rdock/2013.1/src/exe/rbdock.cxx#4 $)

>  <Rbt.Library>
libRbt.so (2013.1, Build901 2013/11/27)

>  <Rbt.Parameter_File>
/home/j5wagner/env_00/source/rDock/rDock_2013.1_src//data/scripts/dock.prm

>  <Rbt.Receptor>
/extra/banzai2/j5wagner/CELPP/2016_10_17_rdock_implementation/normal_run/tutorialVideo/tutorial_rdock_implementation/full_week_run/4-docking/1fcz/LMCSS_1fcz_tech_prep/rDockGridGenInput.prm

>  <SCORE>
-50.156

>  <SCORE.INTER>
-28.5716

>  <SCORE.INTER.CONST>
1

>  <SCORE.INTER.POLAR>
-1.15459

>  <SCORE.INTER.REPUL>
0

>  <SCORE.INTER.ROT>
4

>  <SCORE.INTER.VDW>
-34.046

>  <SCORE.INTER.norm>
-1.05821

>  <SCORE.INTRA>
-2.12412

>  <SCORE.INTRA.DIHEDRAL>
-5.90595

>  <SCORE.INTRA.DIHEDRAL.0>
10.7811

>  <SCORE.INTRA.POLAR>
0

>  <SCORE.INTRA.POLAR.0>
0

>  <SCORE.INTRA.REPUL>
0

>  <SCORE.INTRA.REPUL.0>
0

>  <SCORE.INTRA.VDW>
0.828853

>  <SCORE.INTRA.VDW.0>
-0.812999

>  <SCORE.INTRA.norm>
-0.0786712

>  <SCORE.RESTR>
0

>  <SCORE.RESTR.CAVITY>
0

>  <SCORE.RESTR.norm>
0

>  <SCORE.SYSTEM>
-19.4603

>  <SCORE.SYSTEM.CONST>
0

>  <SCORE.SYSTEM.DIHEDRAL>
1.45111

>  <SCORE.SYSTEM.POLAR>
-4.93967

>  <SCORE.SYSTEM.VDW>
-3.39098

>  <SCORE.SYSTEM.norm>
-0.720752

>  <SCORE.heavy>
27

>  <SCORE.norm>
-1.85763

$$$$

  rDOCK(R)          3D
libRbt.so/2013.1/901 2013/11/27
 28 30  0  0  0  0  0  0  0  0999 V2000
   38.5553   13.9766   85.2329 C   0  0  0  0  0  0
   39.5633   13.1666   84.5166 C   0  0  0  0  0  0
   39.3806   11.9217   84.4445 O   0  0  0  0  0  0
   40.7800   13.7490   83.8998 C   0  0  0  0  0  0
   41.2657   13.2374   82.6906 C   0  0  0  0  0  0
   42.4410   13.7439   82.0892 C   0  0  0  0  0  0
   43.0933   14.8593   82.6964 C   0  0  0  0  0  0
   42.6233   15.3158   83.9471 C   0  0  0  0  0  0
   41.4890   14.7685   84.5387 C   0  0  0  0  0  0
   44.3349   15.5236   82.0820 C   0  0  0  0  0  0
   44.1926   17.0663   82.0915 C   0  0  0  0  0  0
   45.5778   15.1362   82.9155 C   0  0  0  0  0  0
   44.5333   15.1012   80.6051 C   0  0  0  0  0  0
   44.3533   13.6014   80.4052 C   0  0  0  0  0  0
   42.9229   13.1285   80.7660 C   0  0  0  0  0  0
   42.9743   11.5832   80.8656 C   0  0  0  0  0  0
   41.9371   13.5195   79.6410 C   0  0  0  0  0  0
   38.5956   15.3168   85.2707 C   0  0  0  0  0  0
   37.5956   16.1551   85.9769 C   0  0  0  0  0  0
   37.6682   17.5609   86.0094 C   0  0  0  0  0  0
   36.7050   18.3062   86.6965 C   0  0  0  0  0  0
   35.6502   17.6655   87.3689 C   0  0  0  0  0  0
   34.6234   18.4429   88.1049 C   0  0  0  0  0  0
   33.7215   17.8388   88.7446 O   0  0  0  0  0  0
   34.6137   19.8374   88.0999 O   0  0  0  0  0  0
   35.5951   16.2616   87.3589 C   0  0  0  0  0  0
   36.5573   15.5166   86.6722 C   0  0  0  0  0  0
   35.3075   20.3859   87.6087 H   0  0  0  0  0  0
  1  2  1  0  0  0
  2  3  2  0  0  0
  2  4  1  0  0  0
  4  5  2  0  0  0
  5  6  1  0  0  0
  6  7  2  0  0  0
  7  8  1  0  0  0
  8  9  2  0  0  0
  7 10  1  0  0  0
 10 11  1  0  0  0
 10 12  1  0  0  0
 10 13  1  0  0  0
 13 14  1  0  0  0
 14 15  1  0  0  0
 15 16  1  0  0  0
 15 17  1  0  0  0
  1 18  2  0  0  0
 18 19  1  0  0  0
 19 20  2  0  0  0
 20 21  1  0  0  0
 21 22  2  0  0  0
 22 23  1  0  0  0
 23 24  2  0  0  0
 23 25  1  0  0  0
 22 26  1  0  0  0
 26 27  2  0  0  0
  9  4  1  0  0  0
 27 19  1  0  0  0
 15  6  1  0  0  0
 25 28  1  0  0  0
M  END
>  <CHROM.0>
-154.73069825,177.75375667,-65.87238272,69.71862322,61.45787097,64.09788295
60.98257687,70.31872326

>  <CHROM.1>
-174.24541126,-143.37637743,179.47912783,-177.04052277,-0.84257505,40.03774933
15.29242272,84.21032575,2.62610783,0.51960984,0.30754538

>  <Name>

>  <RI>
3.36268e+07

>  <Rbt.Current_Directory>
/extra/banzai2/j5wagner/CELPP/2016_10_17_rdock_implementation/normal_run/tutorialVideo/tutorial_rdock_implementation/full_week_run/4-docking/1fcz/LMCSS_1fcz_docking

>  <Rbt.Executable>
rbdock ($Id: //depot/dev/client3/rdock/2013.1/src/exe/rbdock.cxx#4 $)

>  <Rbt.Library>
libRbt.so (2013.1, Build901 2013/11/27)

>  <Rbt.Parameter_File>
/home/j5wagner/env_00/source/rDock/rDock_2013.1_src//data/scripts/dock.prm

>  <Rbt.Receptor>
/extra/banzai2/j5wagner/CELPP/2016_10_17_rdock_implementation/normal_run/tutorialVideo/tutorial_rdock_implementation/full_week_run/4-docking/1fcz/LMCSS_1fcz_tech_prep/rDockGridGenInput.prm

>  <SCORE>
-55.2807

>  <SCORE.INTER>
-33.9987

>  <SCORE.INTER.CONST>
1

>  <SCORE.INTER.POLAR>
-2.65119

>  <SCORE.INTER.REPUL>
0

>  <SCORE.INTER.ROT>
4

>  <SCORE.INTER.VDW>
-34.3846

>  <SCORE.INTER.norm>
-1.25921

>  <SCORE.INTRA>
-2.05857

>  <SCORE.INTRA.DIHEDRAL>
-5.65663

>  <SCORE.INTRA.DIHEDRAL.0>
10.7811

>  <SCORE.INTRA.POLAR>
0

>  <SCORE.INTRA.POLAR.0>
0

>  <SCORE.INTRA.REPUL>
0

>  <SCORE.INTRA.REPUL.0>
0

>  <SCORE.INTRA.VDW>
0.769742

>  <SCORE.INTRA.VDW.0>
-0.812999

>  <SCORE.INTRA.norm>
-0.0762434

>  <SCORE.RESTR>
0

>  <SCORE.RESTR.CAVITY>
0

>  <SCORE.RESTR.norm>
0

>  <SCORE.SYSTEM>
-19.2235

>  <SCORE.SYSTEM.CONST>
0

>  <SCORE.SYSTEM.DIHEDRAL>
2.06487

>  <SCORE.SYSTEM.POLAR>
-4.94523

>  <SCORE.SYSTEM.VDW>
-3.44216

>  <SCORE.SYSTEM.norm>
-0.711982

>  <SCORE.heavy>
27

>  <SCORE.norm>
-2.04743

$$$$

  rDOCK(R)          3D
libRbt.so/2013.1/901 2013/11/27
 28 30  0  0  0  0  0  0  0  0999 V2000
   39.0578   13.6552   85.0624 C   0  0  0  0  0  0
   40.0940   12.9056   84.3209 C   0  0  0  0  0  0
   39.9565   11.6577   84.2093 O   0  0  0  0  0  0
   41.2881   13.5511   83.7233 C   0  0  0  0  0  0
   41.8355   13.0490   82.5367 C   0  0  0  0  0  0
   42.9927   13.6165   81.9549 C   0  0  0  0  0  0
   43.5592   14.7809   82.5561 C   0  0  0  0  0  0
   43.0297   15.2297   83.7857 C   0  0  0  0  0  0
   41.9163   14.6239   84.3595 C   0  0  0  0  0  0
   44.7731   15.5097   81.9598 C   0  0  0  0  0  0
   44.5360   17.0405   81.9357 C   0  0  0  0  0  0
   46.0154   15.2150   82.8313 C   0  0  0  0  0  0
   45.0353   15.0739   80.4969 C   0  0  0  0  0  0
   44.9531   13.5625   80.3218 C   0  0  0  0  0  0
   43.5456   13.0085   80.6562 C   0  0  0  0  0  0
   43.6894   11.4713   80.7872 C   0  0  0  0  0  0
   42.5672   13.3174   79.4997 C   0  0  0  0  0  0
   38.9821   14.9944   85.0485 C   0  0  0  0  0  0
   37.9509   15.7725   85.7783 C   0  0  0  0  0  0
   37.7571   17.1529   85.5793 C   0  0  0  0  0  0
   36.7768   17.8434   86.2987 C   0  0  0  0  0  0
   35.9705   17.1729   87.2345 C   0  0  0  0  0  0
   34.9292   17.8931   88.0075 C   0  0  0  0  0  0
   34.4620   18.9772   87.5674 O   0  0  0  0  0  0
   34.4554   17.4122   89.2277 O   0  0  0  0  0  0
   36.1843   15.8013   87.4521 C   0  0  0  0  0  0
   37.1637   15.1111   86.7332 C   0  0  0  0  0  0
   33.7675   17.9080   89.7794 H   0  0  0  0  0  0
  1  2  1  0  0  0
  2  3  2  0  0  0
  2  4  1  0  0  0
  4  5  2  0  0  0
  5  6  1  0  0  0
  6  7  2  0  0  0
  7  8  1  0  0  0
  8  9  2  0  0  0
  7 10  1  0  0  0
 10 11  1  0  0  0
 10 12  1  0  0  0
 10 13  1  0  0  0
 13 14  1  0  0  0
 14 15  1  0  0  0
 15 16  1  0  0  0
 15 17  1  0  0  0
  1 18  2  0  0  0
 18 19  1  0  0  0
 19 20  2  0  0  0
 20 21  1  0  0  0
 21 22  2  0  0  0
 22 23  1  0  0  0
 23 24  2  0  0  0
 23 25  1  0  0  0
 22 26  1  0  0  0
 26 27  2  0  0  0
  9  4  1  0  0  0
 27 19  1  0  0  0
 15  6  1  0  0  0
 25 28  1  0  0  0
M  END
>  <CHROM.0>
-158.77082365,61.21772960,56.94932812,68.83799731,-177.77450925,177.33886032
-175.98197250,69.96703311

>  <CHROM.1>
-168.36026594,-146.93562517,-169.44077679,22.26419666,177.98330424,40.48229666
15.02945687,84.07787074,2.69639016,0.54370828,0.26488489

>  <Name>

>  <RI>
3.36268e+07

>  <Rbt.Current_Directory>
/extra/banzai2/j5wagner/CELPP/2016_10_17_rdock_implementation/normal_run/tutorialVideo/tutorial_rdock_implementation/full_week_run/4-docking/1fcz/LMCSS_1fcz_docking

>  <Rbt.Executable>
rbdock ($Id: //depot/dev/client3/rdock/2013.1/src/exe/rbdock.cxx#4 $)

>  <Rbt.Library>
libRbt.so (2013.1, Build901 2013/11/27)

>  <Rbt.Parameter_File>
/home/j5wagner/env_00/source/rDock/rDock_2013.1_src//data/scripts/dock.prm

>  <Rbt.Receptor>
/extra/banzai2/j5wagner/CELPP/2016_10_17_rdock_implementation/normal_run/tutorialVideo/tutorial_rdock_implementation/full_week_run/4-docking/1fcz/LMCSS_1fcz_tech_prep/rDockGridGenInput.prm

>  <SCORE>
-46.185

>  <SCORE.INTER>
-30.5862

>  <SCORE.INTER.CONST>
1

>  <SCORE.INTER.POLAR>
-1.75419

>  <SCORE.INTER.REPUL>
0

>  <SCORE.INTER.ROT>
4

>  <SCORE.INTER.VDW>
-34.0219

>  <SCORE.INTER.norm>
-1.13282

>  <SCORE.INTRA>
-1.2256

>  <SCORE.INTRA.DIHEDRAL>
-3.76391

>  <SCORE.INTRA.DIHEDRAL.0>
10.7811

>  <SCORE.INTRA.POLAR>
0

>  <SCORE.INTRA.POLAR.0>
0

>  <SCORE.INTRA.REPUL>
0

>  <SCORE.INTRA.REPUL.0>
0

>  <SCORE.INTRA.VDW>
0.656358

>  <SCORE.INTRA.VDW.0>
-0.812999

>  <SCORE.INTRA.norm>
-0.0453924

>  <SCORE.RESTR>
0

>  <SCORE.RESTR.CAVITY>
0

>  <SCORE.RESTR.norm>
0

>  <SCORE.SYSTEM>
-14.3733

>  <SCORE.SYSTEM.CONST>
0

>  <SCORE.SYSTEM.DIHEDRAL>
1.6373

>  <SCORE.SYSTEM.POLAR>
-3.5877

>  <SCORE.SYSTEM.REPUL>
0.00261535

>  <SCORE.SYSTEM.VDW>
-3.00679

>  <SCORE.SYSTEM.norm>
-0.532343

>  <SCORE.heavy>
27

>  <SCORE.norm>
-1.71056

$$$$

  rDOCK(R)          3D
libRbt.so/2013.1/901 2013/11/27
 28 30  0  0  0  0  0  0  0  0999 V2000
   38.6662   14.1538   85.0158 C   0  0  0  0  0  0
   39.6873   13.3544   84.3060 C   0  0  0  0  0  0
   39.4961   12.1136   84.1945 O   0  0  0  0  0  0
   40.9258   13.9421   83.7399 C   0  0  0  0  0  0
   41.5034   13.3867   82.5920 C   0  0  0  0  0  0
   42.7017   13.8982   82.0424 C   0  0  0  0  0  0
   43.2826   15.0611   82.6327 C   0  0  0  0  0  0
   42.7194   15.5640   83.8258 C   0  0  0  0  0  0
   41.5638   15.0125   84.3703 C   0  0  0  0  0  0
   44.5437   15.7314   82.0664 C   0  0  0  0  0  0
   44.3598   17.2677   81.9882 C   0  0  0  0  0  0
   45.7390   15.4227   82.9966 C   0  0  0  0  0  0
   44.8499   15.2432   80.6287 C   0  0  0  0  0  0
   44.7236   13.7307   80.4941 C   0  0  0  0  0  0
   43.2857   13.2334   80.7858 C   0  0  0  0  0  0
   43.3718   11.6970   80.9670 C   0  0  0  0  0  0
   42.3658   13.5390   79.5814 C   0  0  0  0  0  0
   38.7546   15.4851   85.1538 C   0  0  0  0  0  0
   37.7433   16.3131   85.8560 C   0  0  0  0  0  0
   37.8427   17.7142   85.9543 C   0  0  0  0  0  0
   36.8671   18.4494   86.6350 C   0  0  0  0  0  0
   35.7729   17.8029   87.2350 C   0  0  0  0  0  0
   34.7324   18.5694   87.9633 C   0  0  0  0  0  0
   34.8417   19.8194   88.0769 O   0  0  0  0  0  0
   33.6317   17.9429   88.5470 O   0  0  0  0  0  0
   35.6902   16.4023   87.1599 C   0  0  0  0  0  0
   36.6649   15.6674   86.4797 C   0  0  0  0  0  0
   33.4927   16.9414   88.5132 H   0  0  0  0  0  0
  1  2  1  0  0  0
  2  3  2  0  0  0
  2  4  1  0  0  0
  4  5  2  0  0  0
  5  6  1  0  0  0
  6  7  2  0  0  0
  7  8  1  0  0  0
  8  9  2  0  0  0
  7 10  1  0  0  0
 10 11  1  0  0  0
 10 12  1  0  0  0
 10 13  1  0  0  0
 13 14  1  0  0  0
 14 15  1  0  0  0
 15 16  1  0  0  0
 15 17  1  0  0  0
  1 18  2  0  0  0
 18 19  1  0  0  0
 19 20  2  0  0  0
 20 21  1  0  0  0
 21 22  2  0  0  0
 22 23  1  0  0  0
 23 24  2  0  0  0
 23 25  1  0  0  0
 22 26  1  0  0  0
 26 27  2  0  0  0
  9  4  1  0  0  0
 27 19  1  0  0  0
 15  6  1  0  0  0
 25 28  1  0  0  0
M  END
>  <CHROM.0>
-159.97108764,-179.60663731,-66.39978550,69.32107144,64.03421922,-56.04754948
-178.15420419,69.99241294

>  <CHROM.1>
-177.95341280,-148.73348354,-178.20092867,-1.68964230,0.71019191,40.21747254
15.43671632,84.12410349,2.62903353,0.49072625,0.33374124

>  <Name>

>  <RI>
3.36268e+07

>  <Rbt.Current_Directory>
/extra/banzai2/j5wagner/CELPP/2016_10_17_rdock_implementation/normal_run/tutorialVideo/tutorial_rdock_implementation/full_week_run/4-docking/1fcz/LMCSS_1fcz_docking

>  <Rbt.Executable>
rbdock ($Id: //depot/dev/client3/rdock/2013.1/src/exe/rbdock.cxx#4 $)

>  <Rbt.Library>
libRbt.so (2013.1, Build901 2013/11/27)

>  <Rbt.Parameter_File>
/home/j5wagner/env_00/source/rDock/rDock_2013.1_src//data/scripts/dock.prm

>  <Rbt.Receptor>
/extra/banzai2/j5wagner/CELPP/2016_10_17_rdock_implementation/normal_run/tutorialVideo/tutorial_rdock_implementation/full_week_run/4-docking/1fcz/LMCSS_1fcz_tech_prep/rDockGridGenInput.prm

>  <SCORE>
-50.0322

>  <SCORE.INTER>
-28.1933

>  <SCORE.INTER.CONST>
1

>  <SCORE.INTER.POLAR>
-1.10937

>  <SCORE.INTER.REPUL>
0

>  <SCORE.INTER.ROT>
4

>  <SCORE.INTER.VDW>
-33.8214

>  <SCORE.INTER.norm>
-1.04419

>  <SCORE.INTRA>
-2.39207

>  <SCORE.INTRA.DIHEDRAL>
-6.87657

>  <SCORE.INTRA.DIHEDRAL.0>
10.7811

>  <SCORE.INTRA.POLAR>
0

>  <SCORE.INTRA.POLAR.0>
0

>  <SCORE.INTRA.REPUL>
0

>  <SCORE.INTRA.REPUL.0>
0

>  <SCORE.INTRA.VDW>
1.04621

>  <SCORE.INTRA.VDW.0>
-0.812999

>  <SCORE.INTRA.norm>
-0.0885953

>  <SCORE.RESTR>
0

>  <SCORE.RESTR.CAVITY>
0

>  <SCORE.RESTR.norm>
0

>  <SCORE.SYSTEM>
-19.4469

>  <SCORE.SYSTEM.CONST>
0

>  <SCORE.SYSTEM.DIHEDRAL>
1.75272

>  <SCORE.SYSTEM.POLAR>
-4.95327

>  <SCORE.SYSTEM.VDW>
-3.48218

>  <SCORE.SYSTEM.norm>
-0.720256

>  <SCORE.heavy>
27

>  <SCORE.norm>
-1.85305

$$$$

  rDOCK(R)          3D
libRbt.so/2013.1/901 2013/11/27
 28 30  0  0  0  0  0  0  0  0999 V2000
   39.2642   14.7704   85.2178 C   0  0  0  0  0  0
   40.2447   13.8115   84.6660 C   0  0  0  0  0  0
   40.0346   12.5814   84.8432 O   0  0  0  0  0  0
   41.4646   14.2318   83.9346 C   0  0  0  0  0  0
   41.8987   13.5042   82.8202 C   0  0  0  0  0  0
   43.0750   13.8540   82.1177 C   0  0  0  0  0  0
   43.7834   15.0289   82.5131 C   0  0  0  0  0  0
   43.3640   15.7087   83.6775 C   0  0  0  0  0  0
   42.2270   15.3153   84.3764 C   0  0  0  0  0  0
   45.0312   15.5293   81.7696 C   0  0  0  0  0  0
   44.9451   17.0558   81.5198 C   0  0  0  0  0  0
   46.2812   15.2386   82.6313 C   0  0  0  0  0  0
   45.1744   14.8557   80.3823 C   0  0  0  0  0  0
   44.9349   13.3522   80.4437 C   0  0  0  0  0  0
   43.4985   13.0050   80.9087 C   0  0  0  0  0  0
   43.4967   11.4979   81.2684 C   0  0  0  0  0  0
   42.4977   13.2396   79.7540 C   0  0  0  0  0  0
   38.3382   14.4206   86.1230 C   0  0  0  0  0  0
   37.3456   15.3619   86.6974 C   0  0  0  0  0  0
   36.3340   14.9516   87.5868 C   0  0  0  0  0  0
   35.4163   15.8766   88.0943 C   0  0  0  0  0  0
   35.4857   17.2305   87.7235 C   0  0  0  0  0  0
   34.5168   18.2223   88.2509 C   0  0  0  0  0  0
   33.5035   17.8286   88.8877 O   0  0  0  0  0  0
   34.6842   19.5920   88.0498 O   0  0  0  0  0  0
   36.4784   17.6330   86.8142 C   0  0  0  0  0  0
   37.3956   16.7088   86.3070 C   0  0  0  0  0  0
   35.4690   19.9767   87.5402 H   0  0  0  0  0  0
  1  2  1  0  0  0
  2  3  2  0  0  0
  2  4  1  0  0  0
  4  5  2  0  0  0
  5  6  1  0  0  0
  6  7  2  0  0  0
  7  8  1  0  0  0
  8  9  2  0  0  0
  7 10  1  0  0  0
 10 11  1  0  0  0
 10 12  1  0  0  0
 10 13  1  0  0  0
 13 14  1  0  0  0
 14 15  1  0  0  0
 15 16  1  0  0  0
 15 17  1  0  0  0
  1 18  2  0  0  0
 18 19  1  0  0  0
 19 20  2  0  0  0
 20 21  1  0  0  0
 21 22  2  0  0  0
 22 23  1  0  0  0
 23 24  2  0  0  0
 23 25  1  0  0  0
 22 26  1  0  0  0
 26 27  2  0  0  0
  9  4  1  0  0  0
 27 19  1  0  0  0
 15  6  1  0  0  0
 25 28  1  0  0  0
M  END
>  <CHROM.0>
-6.55790844,-61.39123320,-65.02383998,69.76798289,-58.51889072,-61.61960245
179.73129605,69.77836669

>  <CHROM.1>
14.61209383,-141.38916235,176.14082350,-10.16786227,-0.14285773,40.38688625
15.22409841,84.33980658,2.73872142,0.55024876,0.23539599

>  <Name>

>  <RI>
3.36268e+07

>  <Rbt.Current_Directory>
/extra/banzai2/j5wagner/CELPP/2016_10_17_rdock_implementation/normal_run/tutorialVideo/tutorial_rdock_implementation/full_week_run/4-docking/1fcz/LMCSS_1fcz_docking

>  <Rbt.Executable>
rbdock ($Id: //depot/dev/client3/rdock/2013.1/src/exe/rbdock.cxx#4 $)

>  <Rbt.Library>
libRbt.so (2013.1, Build901 2013/11/27)

>  <Rbt.Parameter_File>
/home/j5wagner/env_00/source/rDock/rDock_2013.1_src//data/scripts/dock.prm

>  <Rbt.Receptor>
/extra/banzai2/j5wagner/CELPP/2016_10_17_rdock_implementation/normal_run/tutorialVideo/tutorial_rdock_implementation/full_week_run/4-docking/1fcz/LMCSS_1fcz_tech_prep/rDockGridGenInput.prm

>  <SCORE>
-48.313

>  <SCORE.INTER>
-30.4939

>  <SCORE.INTER.CONST>
1

>  <SCORE.INTER.POLAR>
-1.91061

>  <SCORE.INTER.REPUL>
0

>  <SCORE.INTER.ROT>
4

>  <SCORE.INTER.VDW>
-33.3979

>  <SCORE.INTER.norm>
-1.12941

>  <SCORE.INTRA>
-1.37902

>  <SCORE.INTRA.DIHEDRAL>
-4.16107

>  <SCORE.INTRA.DIHEDRAL.0>
10.7811

>  <SCORE.INTRA.POLAR>
0

>  <SCORE.INTRA.POLAR.0>
0

>  <SCORE.INTRA.REPUL>
0

>  <SCORE.INTRA.REPUL.0>
0

>  <SCORE.INTRA.VDW>
0.70151

>  <SCORE.INTRA.VDW.0>
-0.812999

>  <SCORE.INTRA.norm>
-0.051075

>  <SCORE.RESTR>
0

>  <SCORE.RESTR.CAVITY>
0

>  <SCORE.RESTR.norm>
0

>  <SCORE.SYSTEM>
-16.4401

>  <SCORE.SYSTEM.CONST>
0

>  <SCORE.SYSTEM.DIHEDRAL>
1.13871

>  <SCORE.SYSTEM.POLAR>
-4.44717

>  <SCORE.SYSTEM.REPUL>
0.202354

>  <SCORE.SYSTEM.VDW>
-2.90082

>  <SCORE.SYSTEM.norm>
-0.608892

>  <SCORE.heavy>
27

>  <SCORE.norm>
-1.78937

$$$$

  rDOCK(R)          3D
libRbt.so/2013.1/901 2013/11/27
 28 30  0  0  0  0  0  0  0  0999 V2000
   38.5742   13.8285   85.2958 C   0  0  0  0  0  0
   39.6065   13.0695   84.5587 C   0  0  0  0  0  0
   39.4902   11.8159   84.4985 O   0  0  0  0  0  0
   40.7736   13.7126   83.9076 C   0  0  0  0  0  0
   41.2601   13.2153   82.6928 C   0  0  0  0  0  0
   42.3906   13.7805   82.0588 C   0  0  0  0  0  0
   42.9919   14.9383   82.6388 C   0  0  0  0  0  0
   42.5251   15.3820   83.8954 C   0  0  0  0  0  0
   41.4377   14.7782   84.5190 C   0  0  0  0  0  0
   44.1793   15.6647   81.9886 C   0  0  0  0  0  0
   43.9494   17.1968   81.9853 C   0  0  0  0  0  0
   45.4609   15.3583   82.7968 C   0  0  0  0  0  0
   44.3678   15.2368   80.5120 C   0  0  0  0  0  0
   44.2691   13.7270   80.3320 C   0  0  0  0  0  0
   42.8765   13.1779   80.7311 C   0  0  0  0  0  0
   43.0183   11.6393   80.8457 C   0  0  0  0  0  0
   41.8448   13.4990   79.6255 C   0  0  0  0  0  0
   38.5799   15.1673   85.3794 C   0  0  0  0  0  0
   37.5549   15.9552   86.1075 C   0  0  0  0  0  0
   36.5161   15.3552   86.8448 C   0  0  0  0  0  0
   35.5688   16.1422   87.5070 C   0  0  0  0  0  0
   35.6350   17.5448   87.4457 C   0  0  0  0  0  0
   34.6349   18.3923   88.1399 C   0  0  0  0  0  0
   33.7024   17.8516   88.7922 O   0  0  0  0  0  0
   34.6841   19.7847   88.0813 O   0  0  0  0  0  0
   36.6557   18.1414   86.6864 C   0  0  0  0  0  0
   37.6025   17.3552   86.0248 C   0  0  0  0  0  0
   35.4037   20.2843   87.5753 H   0  0  0  0  0  0
  1  2  1  0  0  0
  2  3  2  0  0  0
  2  4  1  0  0  0
  4  5  2  0  0  0
  5  6  1  0  0  0
  6  7  2  0  0  0
  7  8  1  0  0  0
  8  9  2  0  0  0
  7 10  1  0  0  0
 10 11  1  0  0  0
 10 12  1  0  0  0
 10 13  1  0  0  0
 13 14  1  0  0  0
 14 15  1  0  0  0
 15 16  1  0  0  0
 15 17  1  0  0  0
  1 18  2  0  0  0
 18 19  1  0  0  0
 19 20  2  0  0  0
 20 21  1  0  0  0
 21 22  2  0  0  0
 22 23  1  0  0  0
 23 24  2  0  0  0
 23 25  1  0  0  0
 22 26  1  0  0  0
 26 27  2  0  0  0
  9  4  1  0  0  0
 27 19  1  0  0  0
 15  6  1  0  0  0
 25 28  1  0  0  0
M  END
>  <CHROM.0>
2.51760395,179.65461529,-65.46910513,176.80102969,-177.50133532,-177.11607501
179.34835625,70.91017058

>  <CHROM.1>
-177.60864883,-143.70598560,3.65498818,-0.38912774,-0.69270409,39.99452048
15.27318489,84.21457354,2.66333959,0.56301970,0.25725998

>  <Name>

>  <RI>
3.36268e+07

>  <Rbt.Current_Directory>
/extra/banzai2/j5wagner/CELPP/2016_10_17_rdock_implementation/normal_run/tutorialVideo/tutorial_rdock_implementation/full_week_run/4-docking/1fcz/LMCSS_1fcz_docking

>  <Rbt.Executable>
rbdock ($Id: //depot/dev/client3/rdock/2013.1/src/exe/rbdock.cxx#4 $)

>  <Rbt.Library>
libRbt.so (2013.1, Build901 2013/11/27)

>  <Rbt.Parameter_File>
/home/j5wagner/env_00/source/rDock/rDock_2013.1_src//data/scripts/dock.prm

>  <Rbt.Receptor>
/extra/banzai2/j5wagner/CELPP/2016_10_17_rdock_implementation/normal_run/tutorialVideo/tutorial_rdock_implementation/full_week_run/4-docking/1fcz/LMCSS_1fcz_tech_prep/rDockGridGenInput.prm

>  <SCORE>
-48.8204

>  <SCORE.INTER>
-31.5682

>  <SCORE.INTER.CONST>
1

>  <SCORE.INTER.POLAR>
-1.88202

>  <SCORE.INTER.REPUL>
0

>  <SCORE.INTER.ROT>
4

>  <SCORE.INTER.VDW>
-34.5693

>  <SCORE.INTER.norm>
-1.16919

>  <SCORE.INTRA>
-2.35666

>  <SCORE.INTRA.DIHEDRAL>
-5.77784

>  <SCORE.INTRA.DIHEDRAL.0>
10.7811

>  <SCORE.INTRA.POLAR>
0

>  <SCORE.INTRA.POLAR.0>
0

>  <SCORE.INTRA.REPUL>
0

>  <SCORE.INTRA.REPUL.0>
0

>  <SCORE.INTRA.VDW>
0.532265

>  <SCORE.INTRA.VDW.0>
-0.812999

>  <SCORE.INTRA.norm>
-0.0872836

>  <SCORE.RESTR>
0

>  <SCORE.RESTR.CAVITY>
0

>  <SCORE.RESTR.norm>
0

>  <SCORE.SYSTEM>
-14.8955

>  <SCORE.SYSTEM.CONST>
0

>  <SCORE.SYSTEM.DIHEDRAL>
0.822041

>  <SCORE.SYSTEM.POLAR>
-4.19421

>  <SCORE.SYSTEM.REPUL>
0.202354

>  <SCORE.SYSTEM.VDW>
-2.05795

>  <SCORE.SYSTEM.norm>
-0.551684

>  <SCORE.heavy>
27

>  <SCORE.norm>
-1.80816

$$$$

  rDOCK(R)          3D
libRbt.so/2013.1/901 2013/11/27
 28 30  0  0  0  0  0  0  0  0999 V2000
   38.5070   13.9853   85.3041 C   0  0  0  0  0  0
   39.5226   13.1865   84.5859 C   0  0  0  0  0  0
   39.3661   11.9369   84.5351 O   0  0  0  0  0  0
   40.7176   13.7855   83.9433 C   0  0  0  0  0  0
   41.1857   13.2789   82.7251 C   0  0  0  0  0  0
   42.3409   13.8014   82.0989 C   0  0  0  0  0  0
   42.9891   14.9274   82.6908 C   0  0  0  0  0  0
   42.5383   15.3792   83.9502 C   0  0  0  0  0  0
   41.4246   14.8164   84.5658 C   0  0  0  0  0  0
   44.2079   15.6087   82.0499 C   0  0  0  0  0  0
   44.0432   17.1491   82.0600 C   0  0  0  0  0  0
   45.4732   15.2410   82.8582 C   0  0  0  0  0  0
   44.3820   15.1865   80.5699 C   0  0  0  0  0  0
   44.2200   13.6839   80.3759 C   0  0  0  0  0  0
   42.8044   13.1908   80.7669 C   0  0  0  0  0  0
   42.8806   11.6465   80.8678 C   0  0  0  0  0  0
   41.7901   13.5652   79.6619 C   0  0  0  0  0  0
   38.5604   15.3232   85.3840 C   0  0  0  0  0  0
   37.5535   16.1506   86.0931 C   0  0  0  0  0  0
   37.6228   17.5561   86.1434 C   0  0  0  0  0  0
   36.6530   18.2908   86.8327 C   0  0  0  0  0  0
   35.5947   17.6396   87.4894 C   0  0  0  0  0  0
   34.5609   18.4057   88.2275 C   0  0  0  0  0  0
   33.6270   17.7935   88.8111 O   0  0  0  0  0  0
   34.5797   19.7989   88.2849 O   0  0  0  0  0  0
   35.5428   16.2358   87.4618 C   0  0  0  0  0  0
   36.5117   15.5014   86.7729 C   0  0  0  0  0  0
   35.3249   20.3515   87.8814 H   0  0  0  0  0  0
  1  2  1  0  0  0
  2  3  2  0  0  0
  2  4  1  0  0  0
  4  5  2  0  0  0
  5  6  1  0  0  0
  6  7  2  0  0  0
  7  8  1  0  0  0
  8  9  2  0  0  0
  7 10  1  0  0  0
 10 11  1  0  0  0
 10 12  1  0  0  0
 10 13  1  0  0  0
 13 14  1  0  0  0
 14 15  1  0  0  0
 15 16  1  0  0  0
 15 17  1  0  0  0
  1 18  2  0  0  0
 18 19  1  0  0  0
 19 20  2  0  0  0
 20 21  1  0  0  0
 21 22  2  0  0  0
 22 23  1  0  0  0
 23 24  2  0  0  0
 23 25  1  0  0  0
 22 26  1  0  0  0
 26 27  2  0  0  0
  9  4  1  0  0  0
 27 19  1  0  0  0
 15  6  1  0  0  0
 25 28  1  0  0  0
M  END
>  <CHROM.0>
-159.43788808,-61.78626442,-66.40078567,65.07642188,-60.71833225,-61.02132112
-179.06623565,67.97883610

>  <CHROM.1>
-178.07973821,-142.42316289,-178.96812995,-179.71414550,-4.06197564,39.95806794
15.32060201,84.26166926,2.63373966,0.53954903,0.30370951

>  <Name>

>  <RI>
3.36268e+07

>  <Rbt.Current_Directory>
/extra/banzai2/j5wagner/CELPP/2016_10_17_rdock_implementation/normal_run/tutorialVideo/tutorial_rdock_implementation/full_week_run/4-docking/1fcz/LMCSS_1fcz_docking

>  <Rbt.Executable>
rbdock ($Id: //depot/dev/client3/rdock/2013.1/src/exe/rbdock.cxx#4 $)

>  <Rbt.Library>
libRbt.so (2013.1, Build901 2013/11/27)

>  <Rbt.Parameter_File>
/home/j5wagner/env_00/source/rDock/rDock_2013.1_src//data/scripts/dock.prm

>  <Rbt.Receptor>
/extra/banzai2/j5wagner/CELPP/2016_10_17_rdock_implementation/normal_run/tutorialVideo/tutorial_rdock_implementation/full_week_run/4-docking/1fcz/LMCSS_1fcz_tech_prep/rDockGridGenInput.prm

>  <SCORE>
-53.0566

>  <SCORE.INTER>
-31.4576

>  <SCORE.INTER.CONST>
1

>  <SCORE.INTER.POLAR>
-1.85932

>  <SCORE.INTER.REPUL>
0

>  <SCORE.INTER.ROT>
4

>  <SCORE.INTER.VDW>
-34.5359

>  <SCORE.INTER.norm>
-1.1651

>  <SCORE.INTRA>
-1.95366

>  <SCORE.INTRA.DIHEDRAL>
-5.48035

>  <SCORE.INTRA.DIHEDRAL.0>
10.7811

>  <SCORE.INTRA.POLAR>
0

>  <SCORE.INTRA.POLAR.0>
0

>  <SCORE.INTRA.REPUL>
0

>  <SCORE.INTRA.REPUL.0>
0

>  <SCORE.INTRA.VDW>
0.786513

>  <SCORE.INTRA.VDW.0>
-0.812999

>  <SCORE.INTRA.norm>
-0.0723579

>  <SCORE.RESTR>
0

>  <SCORE.RESTR.CAVITY>
0

>  <SCORE.RESTR.norm>
0

>  <SCORE.SYSTEM>
-19.6453

>  <SCORE.SYSTEM.CONST>
0

>  <SCORE.SYSTEM.DIHEDRAL>
1.23694

>  <SCORE.SYSTEM.POLAR>
-4.98286

>  <SCORE.SYSTEM.VDW>
-3.32202

>  <SCORE.SYSTEM.norm>
-0.727603

>  <SCORE.heavy>
27

>  <SCORE.norm>
-1.96506

$$$$

  rDOCK(R)          3D
libRbt.so/2013.1/901 2013/11/27
 28 30  0  0  0  0  0  0  0  0999 V2000
   38.7013   13.9304   85.1433 C   0  0  0  0  0  0
   39.7357   13.1710   84.4093 C   0  0  0  0  0  0
   39.5967   11.9221   84.3124 O   0  0  0  0  0  0
   40.9297   13.8082   83.8025 C   0  0  0  0  0  0
   41.4946   13.2722   82.6392 C   0  0  0  0  0  0
   42.6522   13.8315   82.0505 C   0  0  0  0  0  0
   43.2008   15.0212   82.6180 C   0  0  0  0  0  0
   42.6539   15.5056   83.8263 C   0  0  0  0  0  0
   41.5405   14.9081   84.4087 C   0  0  0  0  0  0
   44.4138   15.7419   82.0100 C   0  0  0  0  0  0
   44.1619   17.2686   81.9319 C   0  0  0  0  0  0
   45.6496   15.4893   82.9037 C   0  0  0  0  0  0
   44.6958   15.2599   80.5654 C   0  0  0  0  0  0
   44.6304   13.7428   80.4405 C   0  0  0  0  0  0
   43.2249   13.1859   80.7788 C   0  0  0  0  0  0
   43.3824   11.6556   80.9630 C   0  0  0  0  0  0
   42.2558   13.4459   79.6026 C   0  0  0  0  0  0
   38.6856   15.2706   85.1952 C   0  0  0  0  0  0
   37.6580   16.0587   85.9193 C   0  0  0  0  0  0
   36.6376   15.4593   86.6823 C   0  0  0  0  0  0
   35.6868   16.2462   87.3396 C   0  0  0  0  0  0
   35.7311   17.6480   87.2477 C   0  0  0  0  0  0
   34.7270   18.4953   87.9365 C   0  0  0  0  0  0
   34.8313   19.7501   87.8910 O   0  0  0  0  0  0
   33.6671   17.9423   88.6544 O   0  0  0  0  0  0
   36.7332   18.2433   86.4631 C   0  0  0  0  0  0
   37.6835   17.4571   85.8063 C   0  0  0  0  0  0
   33.5568   16.9449   88.7830 H   0  0  0  0  0  0
  1  2  1  0  0  0
  2  3  2  0  0  0
  2  4  1  0  0  0
  4  5  2  0  0  0
  5  6  1  0  0  0
  6  7  2  0  0  0
  7  8  1  0  0  0
  8  9  2  0  0  0
  7 10  1  0  0  0
 10 11  1  0  0  0
 10 12  1  0  0  0
 10 13  1  0  0  0
 13 14  1  0  0  0
 14 15  1  0  0  0
 15 16  1  0  0  0
 15 17  1  0  0  0
  1 18  2  0  0  0
 18 19  1  0  0  0
 19 20  2  0  0  0
 20 21  1  0  0  0
 21 22  2  0  0  0
 22 23  1  0  0  0
 23 24  2  0  0  0
 23 25  1  0  0  0
 22 26  1  0  0  0
 26 27  2  0  0  0
  9  4  1  0  0  0
 27 19  1  0  0  0
 15  6  1  0  0  0
 25 28  1  0  0  0
M  END
>  <CHROM.0>
-159.21107389,-61.46334727,-66.57783234,67.94108631,-176.42928802,62.77831887
67.89449608,70.25098507

>  <CHROM.1>
-173.44965325,-148.49910103,3.45780664,176.45384364,3.33193614,40.16790699
15.33681879,84.13280294,2.66867120,0.53151774,0.26407855

>  <Name>

>  <RI>
3.36268e+07

>  <Rbt.Current_Directory>
/extra/banzai2/j5wagner/CELPP/2016_10_17_rdock_implementation/normal_run/tutorialVideo/tutorial_rdock_implementation/full_week_run/4-docking/1fcz/LMCSS_1fcz_docking

>  <Rbt.Executable>
rbdock ($Id: //depot/dev/client3/rdock/2013.1/src/exe/rbdock.cxx#4 $)

>  <Rbt.Library>
libRbt.so (2013.1, Build901 2013/11/27)

>  <Rbt.Parameter_File>
/home/j5wagner/env_00/source/rDock/rDock_2013.1_src//data/scripts/dock.prm

>  <Rbt.Receptor>
/extra/banzai2/j5wagner/CELPP/2016_10_17_rdock_implementation/normal_run/tutorialVideo/tutorial_rdock_implementation/full_week_run/4-docking/1fcz/LMCSS_1fcz_tech_prep/rDockGridGenInput.prm

>  <SCORE>
-53.6272

>  <SCORE.INTER>
-31.364

>  <SCORE.INTER.CONST>
1

>  <SCORE.INTER.POLAR>
-1.98092

>  <SCORE.INTER.REPUL>
0

>  <SCORE.INTER.ROT>
4

>  <SCORE.INTER.VDW>
-34.0288

>  <SCORE.INTER.norm>
-1.16163

>  <SCORE.INTRA>
-2.5726

>  <SCORE.INTRA.DIHEDRAL>
-6.50518

>  <SCORE.INTRA.DIHEDRAL.0>
10.7811

>  <SCORE.INTRA.POLAR>
0

>  <SCORE.INTRA.POLAR.0>
0

>  <SCORE.INTRA.REPUL>
0

>  <SCORE.INTRA.REPUL.0>
0

>  <SCORE.INTRA.VDW>
0.679989

>  <SCORE.INTRA.VDW.0>
-0.812999

>  <SCORE.INTRA.norm>
-0.0952815

>  <SCORE.RESTR>
0

>  <SCORE.RESTR.CAVITY>
0

>  <SCORE.RESTR.norm>
0

>  <SCORE.SYSTEM>
-19.6907

>  <SCORE.SYSTEM.CONST>
0

>  <SCORE.SYSTEM.DIHEDRAL>
1.97954

>  <SCORE.SYSTEM.POLAR>
-5.00377

>  <SCORE.SYSTEM.VDW>
-3.66762

>  <SCORE.SYSTEM.norm>
-0.729284

>  <SCORE.heavy>
27

>  <SCORE.norm>
-1.98619

$$$$

  rDOCK(R)          3D
libRbt.so/2013.1/901 2013/11/27
 28 30  0  0  0  0  0  0  0  0999 V2000
   38.5800   13.8410   85.2506 C   0  0  0  0  0  0
   39.6038   13.0906   84.4930 C   0  0  0  0  0  0
   39.4680   11.8418   84.3905 O   0  0  0  0  0  0
   40.7840   13.7365   83.8687 C   0  0  0  0  0  0
   41.2875   13.2522   82.6556 C   0  0  0  0  0  0
   42.4306   13.8202   82.0469 C   0  0  0  0  0  0
   43.0277   14.9677   82.6510 C   0  0  0  0  0  0
   42.5429   15.3977   83.9055 C   0  0  0  0  0  0
   41.4430   14.7912   84.5040 C   0  0  0  0  0  0
   44.2285   15.6967   82.0290 C   0  0  0  0  0  0
   44.0056   17.2298   82.0415 C   0  0  0  0  0  0
   45.4957   15.3741   82.8536 C   0  0  0  0  0  0
   44.4386   15.2866   80.5504 C   0  0  0  0  0  0
   44.3361   13.7796   80.3497 C   0  0  0  0  0  0
   42.9349   13.2321   80.7196 C   0  0  0  0  0  0
   43.0679   11.6915   80.8169 C   0  0  0  0  0  0
   41.9224   13.5719   79.6018 C   0  0  0  0  0  0
   38.5477   15.1813   85.2944 C   0  0  0  0  0  0
   37.5300   15.9605   86.0418 C   0  0  0  0  0  0
   36.5154   15.3517   86.8052 C   0  0  0  0  0  0
   35.5738   16.1306   87.4850 C   0  0  0  0  0  0
   35.6218   17.5335   87.4158 C   0  0  0  0  0  0
   34.6275   18.3724   88.1286 C   0  0  0  0  0  0
   33.7186   17.8238   88.8072 O   0  0  0  0  0  0
   34.6562   19.7649   88.0594 O   0  0  0  0  0  0
   36.6178   18.1386   86.6309 C   0  0  0  0  0  0
   37.5589   17.3605   85.9517 C   0  0  0  0  0  0
   35.3566   20.2706   87.5327 H   0  0  0  0  0  0
  1  2  1  0  0  0
  2  3  2  0  0  0
  2  4  1  0  0  0
  4  5  2  0  0  0
  5  6  1  0  0  0
  6  7  2  0  0  0
  7  8  1  0  0  0
  8  9  2  0  0  0
  7 10  1  0  0  0
 10 11  1  0  0  0
 10 12  1  0  0  0
 10 13  1  0  0  0
 13 14  1  0  0  0
 14 15  1  0  0  0
 15 16  1  0  0  0
 15 17  1  0  0  0
  1 18  2  0  0  0
 18 19  1  0  0  0
 19 20  2  0  0  0
 20 21  1  0  0  0
 21 22  2  0  0  0
 22 23  1  0  0  0
 23 24  2  0  0  0
 23 25  1  0  0  0
 22 26  1  0  0  0
 26 27  2  0  0  0
  9  4  1  0  0  0
 27 19  1  0  0  0
 15  6  1  0  0  0
 25 28  1  0  0  0
M  END
>  <CHROM.0>
17.60183436,60.43310879,-64.27906397,-55.49744460,62.45990717,59.44792648
62.43881806,70.29043025

>  <CHROM.1>
-172.37634470,-145.20696204,1.53947674,-0.20140220,-0.70615443,40.01020011
15.29199828,84.19499466,2.66189283,0.55059208,0.27342600

>  <Name>

>  <RI>
3.36268e+07

>  <Rbt.Current_Directory>
/extra/banzai2/j5wagner/CELPP/2016_10_17_rdock_implementation/normal_run/tutorialVideo/tutorial_rdock_implementation/full_week_run/4-docking/1fcz/LMCSS_1fcz_docking

>  <Rbt.Executable>
rbdock ($Id: //depot/dev/client3/rdock/2013.1/src/exe/rbdock.cxx#4 $)

>  <Rbt.Library>
libRbt.so (2013.1, Build901 2013/11/27)

>  <Rbt.Parameter_File>
/home/j5wagner/env_00/source/rDock/rDock_2013.1_src//data/scripts/dock.prm

>  <Rbt.Receptor>
/extra/banzai2/j5wagner/CELPP/2016_10_17_rdock_implementation/normal_run/tutorialVideo/tutorial_rdock_implementation/full_week_run/4-docking/1fcz/LMCSS_1fcz_tech_prep/rDockGridGenInput.prm

>  <SCORE>
-51.2942

>  <SCORE.INTER>
-34.0108

>  <SCORE.INTER.CONST>
1

>  <SCORE.INTER.POLAR>
-2.6393

>  <SCORE.INTER.REPUL>
0

>  <SCORE.INTER.ROT>
4

>  <SCORE.INTER.VDW>
-34.4372

>  <SCORE.INTER.norm>
-1.25966

>  <SCORE.INTRA>
-2.46918

>  <SCORE.INTRA.DIHEDRAL>
-5.96418

>  <SCORE.INTRA.DIHEDRAL.0>
10.7811

>  <SCORE.INTRA.POLAR>
0

>  <SCORE.INTRA.POLAR.0>
0

>  <SCORE.INTRA.REPUL>
0

>  <SCORE.INTRA.REPUL.0>
0

>  <SCORE.INTRA.VDW>
0.51291

>  <SCORE.INTRA.VDW.0>
-0.812999

>  <SCORE.INTRA.norm>
-0.0914511

>  <SCORE.RESTR>
0

>  <SCORE.RESTR.CAVITY>
0

>  <SCORE.RESTR.norm>
0

>  <SCORE.SYSTEM>
-14.8142

>  <SCORE.SYSTEM.CONST>
0

>  <SCORE.SYSTEM.DIHEDRAL>
1.1783

>  <SCORE.SYSTEM.POLAR>
-4.18104

>  <SCORE.SYSTEM.REPUL>
0.202354

>  <SCORE.SYSTEM.VDW>
-2.19957

>  <SCORE.SYSTEM.norm>
-0.548674

>  <SCORE.heavy>
27

>  <SCORE.norm>
-1.89979

$$$$

  rDOCK(R)          3D
libRbt.so/2013.1/901 2013/11/27
 28 30  0  0  0  0  0  0  0  0999 V2000
   39.3720   14.5084   85.4159 C   0  0  0  0  0  0
   40.1818   13.3563   84.9663 C   0  0  0  0  0  0
   40.0698   12.2711   85.5975 O   0  0  0  0  0  0
   41.1262   13.4269   83.8249 C   0  0  0  0  0  0
   42.0175   14.5012   83.7188 C   0  0  0  0  0  0
   42.9094   14.6206   82.6280 C   0  0  0  0  0  0
   42.9506   13.5712   81.6608 C   0  0  0  0  0  0
   41.9993   12.5319   81.7533 C   0  0  0  0  0  0
   41.1022   12.4630   82.8146 C   0  0  0  0  0  0
   43.9329   13.5762   80.4795 C   0  0  0  0  0  0
   44.6082   12.1907   80.3223 C   0  0  0  0  0  0
   43.1580   13.8991   79.1815 C   0  0  0  0  0  0
   45.0694   14.6072   80.6898 C   0  0  0  0  0  0
   44.5463   15.9484   81.1890 C   0  0  0  0  0  0
   43.8541   15.8314   82.5699 C   0  0  0  0  0  0
   43.0710   17.1499   82.7910 C   0  0  0  0  0  0
   44.9169   15.6941   83.6843 C   0  0  0  0  0  0
   38.3406   14.3829   86.2642 C   0  0  0  0  0  0
   37.5141   15.5212   86.7361 C   0  0  0  0  0  0
   36.4130   15.3560   87.5980 C   0  0  0  0  0  0
   35.6597   16.4606   88.0077 C   0  0  0  0  0  0
   35.9864   17.7536   87.5643 C   0  0  0  0  0  0
   35.1942   18.9342   87.9876 C   0  0  0  0  0  0
   34.1671   18.7749   88.6997 O   0  0  0  0  0  0
   35.5440   20.2291   87.6063 O   0  0  0  0  0  0
   37.0683   17.9132   86.6821 C   0  0  0  0  0  0
   37.8213   16.8095   86.2727 C   0  0  0  0  0  0
   35.0320   21.0455   87.9142 H   0  0  0  0  0  0
  1  2  1  0  0  0
  2  3  2  0  0  0
  2  4  1  0  0  0
  4  5  2  0  0  0
  5  6  1  0  0  0
  6  7  2  0  0  0
  7  8  1  0  0  0
  8  9  2  0  0  0
  7 10  1  0  0  0
 10 11  1  0  0  0
 10 12  1  0  0  0
 10 13  1  0  0  0
 13 14  1  0  0  0
 14 15  1  0  0  0
 15 16  1  0  0  0
 15 17  1  0  0  0
  1 18  2  0  0  0
 18 19  1  0  0  0
 19 20  2  0  0  0
 20 21  1  0  0  0
 21 22  2  0  0  0
 22 23  1  0  0  0
 23 24  2  0  0  0
 23 25  1  0  0  0
 22 26  1  0  0  0
 26 27  2  0  0  0
  9  4  1  0  0  0
 27 19  1  0  0  0
 15  6  1  0  0  0
 25 28  1  0  0  0
M  END
>  <CHROM.0>
-2.37641811,59.75547649,-64.77620184,67.22944228,-58.46272147,-179.96654562
70.64898600,70.33382598

>  <CHROM.1>
-14.23615179,46.50822252,178.16598484,-3.81437238,-177.79225710,40.31504327
15.32118644,84.32555298,2.75177402,0.65574375,0.05944979

>  <Name>

>  <RI>
3.36268e+07

>  <Rbt.Current_Directory>
/extra/banzai2/j5wagner/CELPP/2016_10_17_rdock_implementation/normal_run/tutorialVideo/tutorial_rdock_implementation/full_week_run/4-docking/1fcz/LMCSS_1fcz_docking

>  <Rbt.Executable>
rbdock ($Id: //depot/dev/client3/rdock/2013.1/src/exe/rbdock.cxx#4 $)

>  <Rbt.Library>
libRbt.so (2013.1, Build901 2013/11/27)

>  <Rbt.Parameter_File>
/home/j5wagner/env_00/source/rDock/rDock_2013.1_src//data/scripts/dock.prm

>  <Rbt.Receptor>
/extra/banzai2/j5wagner/CELPP/2016_10_17_rdock_implementation/normal_run/tutorialVideo/tutorial_rdock_implementation/full_week_run/4-docking/1fcz/LMCSS_1fcz_tech_prep/rDockGridGenInput.prm

>  <SCORE>
-42.0079

>  <SCORE.INTER>
-24.979

>  <SCORE.INTER.CONST>
1

>  <SCORE.INTER.POLAR>
-0.979824

>  <SCORE.INTER.REPUL>
0.03698

>  <SCORE.INTER.ROT>
4

>  <SCORE.INTER.VDW>
-31.2325

>  <SCORE.INTER.norm>
-0.925147

>  <SCORE.INTRA>
-0.766119

>  <SCORE.INTRA.DIHEDRAL>
-2.86164

>  <SCORE.INTRA.DIHEDRAL.0>
10.7811

>  <SCORE.INTRA.POLAR>
0

>  <SCORE.INTRA.POLAR.0>
0

>  <SCORE.INTRA.REPUL>
0

>  <SCORE.INTRA.REPUL.0>
0

>  <SCORE.INTRA.VDW>
0.664702

>  <SCORE.INTRA.VDW.0>
-0.812999

>  <SCORE.INTRA.norm>
-0.0283748

>  <SCORE.RESTR>
0

>  <SCORE.RESTR.CAVITY>
0

>  <SCORE.RESTR.norm>
0

>  <SCORE.SYSTEM>
-16.2628

>  <SCORE.SYSTEM.CONST>
0

>  <SCORE.SYSTEM.DIHEDRAL>
1.45041

>  <SCORE.SYSTEM.POLAR>
-4.37673

>  <SCORE.SYSTEM.REPUL>
0.202354

>  <SCORE.SYSTEM.VDW>
-3.11886

>  <SCORE.SYSTEM.norm>
-0.602325

>  <SCORE.heavy>
27

>  <SCORE.norm>
-1.55585

$$$$

  rDOCK(R)          3D
libRbt.so/2013.1/901 2013/11/27
 28 30  0  0  0  0  0  0  0  0999 V2000
   40.0216   15.7008   85.5784 C   0  0  0  0  0  0
   41.4029   15.7384   85.0532 C   0  0  0  0  0  0
   42.2350   16.4905   85.6280 O   0  0  0  0  0  0
   41.8435   14.9493   83.8772 C   0  0  0  0  0  0
   43.1227   15.1435   83.3428 C   0  0  0  0  0  0
   43.5662   14.4345   82.2025 C   0  0  0  0  0  0
   42.7104   13.4392   81.6410 C   0  0  0  0  0  0
   41.4025   13.3067   82.1561 C   0  0  0  0  0  0
   40.9765   14.0503   83.2523 C   0  0  0  0  0  0
   43.1300   12.5692   80.4463 C   0  0  0  0  0  0
   42.7831   11.0812   80.7030 C   0  0  0  0  0  0
   42.3706   13.0440   79.1863 C   0  0  0  0  0  0
   44.6579   12.6373   80.2024 C   0  0  0  0  0  0
   45.1894   14.0638   80.2684 C   0  0  0  0  0  0
   44.9797   14.7045   81.6632 C   0  0  0  0  0  0
   45.2231   16.2257   81.4979 C   0  0  0  0  0  0
   46.0157   14.1433   82.6641 C   0  0  0  0  0  0
   39.5018   16.6880   86.3232 C   0  0  0  0  0  0
   38.1183   16.6796   86.8591 C   0  0  0  0  0  0
   37.4844   17.8384   87.3468 C   0  0  0  0  0  0
   36.1811   17.7767   87.8500 C   0  0  0  0  0  0
   35.4830   16.5573   87.8807 C   0  0  0  0  0  0
   34.1015   16.4760   88.4150 C   0  0  0  0  0  0
   33.5245   15.3584   88.4882 O   0  0  0  0  0  0
   33.4060   17.6112   88.8297 O   0  0  0  0  0  0
   36.1274   15.3969   87.4196 C   0  0  0  0  0  0
   37.4295   15.4584   86.9165 C   0  0  0  0  0  0
   33.8214   18.5337   88.8357 H   0  0  0  0  0  0
  1  2  1  0  0  0
  2  3  2  0  0  0
  2  4  1  0  0  0
  4  5  2  0  0  0
  5  6  1  0  0  0
  6  7  2  0  0  0
  7  8  1  0  0  0
  8  9  2  0  0  0
  7 10  1  0  0  0
 10 11  1  0  0  0
 10 12  1  0  0  0
 10 13  1  0  0  0
 13 14  1  0  0  0
 14 15  1  0  0  0
 15 16  1  0  0  0
 15 17  1  0  0  0
  1 18  2  0  0  0
 18 19  1  0  0  0
 19 20  2  0  0  0
 20 21  1  0  0  0
 21 22  2  0  0  0
 22 23  1  0  0  0
 23 24  2  0  0  0
 23 25  1  0  0  0
 22 26  1  0  0  0
 26 27  2  0  0  0
  9  4  1  0  0  0
 27 19  1  0  0  0
 15  6  1  0  0  0
 25 28  1  0  0  0
M  END
>  <CHROM.0>
7.47325183,59.06409156,55.83378228,-55.30176103,60.19701705,-58.50483286
178.73875067,67.83232929

>  <CHROM.1>
21.53822207,172.90522256,-163.90929467,-176.64584241,-3.44393465,40.46393880
15.09724676,84.28666885,-2.49756213,-0.32057323,-2.37860206

>  <Name>

>  <RI>
3.36268e+07

>  <Rbt.Current_Directory>
/extra/banzai2/j5wagner/CELPP/2016_10_17_rdock_implementation/normal_run/tutorialVideo/tutorial_rdock_implementation/full_week_run/4-docking/1fcz/LMCSS_1fcz_docking

>  <Rbt.Executable>
rbdock ($Id: //depot/dev/client3/rdock/2013.1/src/exe/rbdock.cxx#4 $)

>  <Rbt.Library>
libRbt.so (2013.1, Build901 2013/11/27)

>  <Rbt.Parameter_File>
/home/j5wagner/env_00/source/rDock/rDock_2013.1_src//data/scripts/dock.prm

>  <Rbt.Receptor>
/extra/banzai2/j5wagner/CELPP/2016_10_17_rdock_implementation/normal_run/tutorialVideo/tutorial_rdock_implementation/full_week_run/4-docking/1fcz/LMCSS_1fcz_tech_prep/rDockGridGenInput.prm

>  <SCORE>
-38.1834

>  <SCORE.INTER>
-25.3884

>  <SCORE.INTER.CONST>
1

>  <SCORE.INTER.POLAR>
-0.860265

>  <SCORE.INTER.REPUL>
0.037548

>  <SCORE.INTER.ROT>
4

>  <SCORE.INTER.VDW>
-32.0513

>  <SCORE.INTER.norm>
-0.940313

>  <SCORE.INTRA>
-2.91372

>  <SCORE.INTRA.DIHEDRAL>
-7.86554

>  <SCORE.INTRA.DIHEDRAL.0>
10.7811

>  <SCORE.INTRA.POLAR>
0

>  <SCORE.INTRA.POLAR.0>
0

>  <SCORE.INTRA.REPUL>
0

>  <SCORE.INTRA.REPUL.0>
0

>  <SCORE.INTRA.VDW>
1.01905

>  <SCORE.INTRA.VDW.0>
-0.812999

>  <SCORE.INTRA.norm>
-0.107916

>  <SCORE.RESTR>
0

>  <SCORE.RESTR.CAVITY>
0

>  <SCORE.RESTR.norm>
0

>  <SCORE.SYSTEM>
-9.88121

>  <SCORE.SYSTEM.CONST>
0

>  <SCORE.SYSTEM.DIHEDRAL>
0.591053

>  <SCORE.SYSTEM.POLAR>
-2.83426

>  <SCORE.SYSTEM.REPUL>
0.202354

>  <SCORE.SYSTEM.VDW>
-1.55203

>  <SCORE.SYSTEM.norm>
-0.365971

>  <SCORE.heavy>
27

>  <SCORE.norm>
-1.4142

$$$$

  rDOCK(R)          3D
libRbt.so/2013.1/901 2013/11/27
 28 30  0  0  0  0  0  0  0  0999 V2000
   40.0745   15.6845   85.5617 C   0  0  0  0  0  0
   41.4454   15.7938   85.0195 C   0  0  0  0  0  0
   42.2375   16.6049   85.5703 O   0  0  0  0  0  0
   41.9194   15.0098   83.8531 C   0  0  0  0  0  0
   43.1664   15.2892   83.2815 C   0  0  0  0  0  0
   43.6378   14.5862   82.1487 C   0  0  0  0  0  0
   42.8507   13.5115   81.6349 C   0  0  0  0  0  0
   41.5698   13.2908   82.1865 C   0  0  0  0  0  0
   41.1121   14.0285   83.2738 C   0  0  0  0  0  0
   43.3098   12.6447   80.4525 C   0  0  0  0  0  0
   43.0882   11.1417   80.7560 C   0  0  0  0  0  0
   42.4858   13.0235   79.2006 C   0  0  0  0  0  0
   44.8214   12.8261   80.1679 C   0  0  0  0  0  0
   45.2395   14.2912   80.1838 C   0  0  0  0  0  0
   45.0124   14.9516   81.5667 C   0  0  0  0  0  0
   45.1305   16.4821   81.3564 C   0  0  0  0  0  0
   46.1129   14.5013   82.5548 C   0  0  0  0  0  0
   39.4810   16.6790   86.2385 C   0  0  0  0  0  0
   38.1056   16.5993   86.7893 C   0  0  0  0  0  0
   37.3818   17.7366   87.1958 C   0  0  0  0  0  0
   36.0906   17.6080   87.7171 C   0  0  0  0  0  0
   35.4944   16.3419   87.8472 C   0  0  0  0  0  0
   34.1270   16.1899   88.4018 C   0  0  0  0  0  0
   33.5286   17.1934   88.8733 O   0  0  0  0  0  0
   33.4798   14.9551   88.4332 O   0  0  0  0  0  0
   36.2288   15.2059   87.4672 C   0  0  0  0  0  0
   37.5190   15.3343   86.9461 C   0  0  0  0  0  0
   32.5189   14.8502   88.7321 H   0  0  0  0  0  0
  1  2  1  0  0  0
  2  3  2  0  0  0
  2  4  1  0  0  0
  4  5  2  0  0  0
  5  6  1  0  0  0
  6  7  2  0  0  0
  7  8  1  0  0  0
  8  9  2  0  0  0
  7 10  1  0  0  0
 10 11  1  0  0  0
 10 12  1  0  0  0
 10 13  1  0  0  0
 13 14  1  0  0  0
 14 15  1  0  0  0
 15 16  1  0  0  0
 15 17  1  0  0  0
  1 18  2  0  0  0
 18 19  1  0  0  0
 19 20  2  0  0  0
 20 21  1  0  0  0
 21 22  2  0  0  0
 22 23  1  0  0  0
 23 24  2  0  0  0
 23 25  1  0  0  0
 22 26  1  0  0  0
 26 27  2  0  0  0
  9  4  1  0  0  0
 27 19  1  0  0  0
 15  6  1  0  0  0
 25 28  1  0  0  0
M  END
>  <CHROM.0>
-158.03554503,176.90399140,-65.53431115,-54.73773810,-177.21463419,65.12499463
67.46730894,68.15752723

>  <CHROM.1>
24.88077034,171.47904370,-163.76642757,-6.23088539,-174.43594836,40.52206196
15.08365450,84.24895856,-2.54719295,-0.37783943,-2.42267557

>  <Name>

>  <RI>
3.36268e+07

>  <Rbt.Current_Directory>
/extra/banzai2/j5wagner/CELPP/2016_10_17_rdock_implementation/normal_run/tutorialVideo/tutorial_rdock_implementation/full_week_run/4-docking/1fcz/LMCSS_1fcz_docking

>  <Rbt.Executable>
rbdock ($Id: //depot/dev/client3/rdock/2013.1/src/exe/rbdock.cxx#4 $)

>  <Rbt.Library>
libRbt.so (2013.1, Build901 2013/11/27)

>  <Rbt.Parameter_File>
/home/j5wagner/env_00/source/rDock/rDock_2013.1_src//data/scripts/dock.prm

>  <Rbt.Receptor>
/extra/banzai2/j5wagner/CELPP/2016_10_17_rdock_implementation/normal_run/tutorialVideo/tutorial_rdock_implementation/full_week_run/4-docking/1fcz/LMCSS_1fcz_tech_prep/rDockGridGenInput.prm

>  <SCORE>
-48.5828

>  <SCORE.INTER>
-27.8864

>  <SCORE.INTER.CONST>
1

>  <SCORE.INTER.POLAR>
-1.48205

>  <SCORE.INTER.REPUL>
0.17435

>  <SCORE.INTER.ROT>
4

>  <SCORE.INTER.VDW>
-33.1192

>  <SCORE.INTER.norm>
-1.03283

>  <SCORE.INTRA>
-2.5012

>  <SCORE.INTRA.DIHEDRAL>
-6.98303

>  <SCORE.INTRA.DIHEDRAL.0>
10.7811

>  <SCORE.INTRA.POLAR>
0

>  <SCORE.INTRA.POLAR.0>
0

>  <SCORE.INTRA.REPUL>
0

>  <SCORE.INTRA.REPUL.0>
0

>  <SCORE.INTRA.VDW>
0.990309

>  <SCORE.INTRA.VDW.0>
-0.812999

>  <SCORE.INTRA.norm>
-0.0926372

>  <SCORE.RESTR>
0

>  <SCORE.RESTR.CAVITY>
0

>  <SCORE.RESTR.norm>
0

>  <SCORE.SYSTEM>
-18.1952

>  <SCORE.SYSTEM.CONST>
0

>  <SCORE.SYSTEM.DIHEDRAL>
1.65082

>  <SCORE.SYSTEM.POLAR>
-4.75686

>  <SCORE.SYSTEM.VDW>
-2.84726

>  <SCORE.SYSTEM.norm>
-0.673895

>  <SCORE.heavy>
27

>  <SCORE.norm>
-1.79936

$$$$

  rDOCK(R)          3D
libRbt.so/2013.1/901 2013/11/27
 28 30  0  0  0  0  0  0  0  0999 V2000
   38.6145   14.0285   85.1746 C   0  0  0  0  0  0
   39.6124   13.2069   84.4574 C   0  0  0  0  0  0
   39.4210   11.9627   84.3951 O   0  0  0  0  0  0
   40.8289   13.7769   83.8287 C   0  0  0  0  0  0
   41.3141   13.2414   82.6297 C   0  0  0  0  0  0
   42.4892   13.7358   82.0180 C   0  0  0  0  0  0
   43.1418   14.8630   82.6026 C   0  0  0  0  0  0
   42.6722   15.3443   83.8442 C   0  0  0  0  0  0
   41.5382   14.8089   84.4469 C   0  0  0  0  0  0
   44.3831   15.5149   81.9747 C   0  0  0  0  0  0
   44.2408   17.0575   81.9536 C   0  0  0  0  0  0
   45.6263   15.1441   82.8152 C   0  0  0  0  0  0
   44.5810   15.0632   80.5064 C   0  0  0  0  0  0
   44.4009   13.5598   80.3363 C   0  0  0  0  0  0
   42.9705   13.0942   80.7070 C   0  0  0  0  0  0
   43.0220   11.5512   80.8373 C   0  0  0  0  0  0
   41.9844   13.4628   79.5749 C   0  0  0  0  0  0
   38.6908   15.3659   85.2433 C   0  0  0  0  0  0
   37.7018   16.2158   85.9512 C   0  0  0  0  0  0
   37.7885   17.6209   85.9798 C   0  0  0  0  0  0
   36.8353   18.3774   86.6688 C   0  0  0  0  0  0
   35.7768   17.7489   87.3468 C   0  0  0  0  0  0
   34.7606   18.5382   88.0848 C   0  0  0  0  0  0
   34.8859   19.7885   88.1765 O   0  0  0  0  0  0
   33.6657   17.9334   88.7014 O   0  0  0  0  0  0
   35.7078   16.3455   87.3406 C   0  0  0  0  0  0
   36.6600   15.5894   86.6521 C   0  0  0  0  0  0
   33.5287   16.9310   88.7087 H   0  0  0  0  0  0
  1  2  1  0  0  0
  2  3  2  0  0  0
  2  4  1  0  0  0
  4  5  2  0  0  0
  5  6  1  0  0  0
  6  7  2  0  0  0
  7  8  1  0  0  0
  8  9  2  0  0  0
  7 10  1  0  0  0
 10 11  1  0  0  0
 10 12  1  0  0  0
 10 13  1  0  0  0
 13 14  1  0  0  0
 14 15  1  0  0  0
 15 16  1  0  0  0
 15 17  1  0  0  0
  1 18  2  0  0  0
 18 19  1  0  0  0
 19 20  2  0  0  0
 20 21  1  0  0  0
 21 22  2  0  0  0
 22 23  1  0  0  0
 23 24  2  0  0  0
 23 25  1  0  0  0
 22 26  1  0  0  0
 26 27  2  0  0  0
  9  4  1  0  0  0
 27 19  1  0  0  0
 15  6  1  0  0  0
 25 28  1  0  0  0
M  END
>  <CHROM.0>
-161.06689164,-61.34243051,-65.56408402,67.71859804,-55.44524742,-58.80128864
-178.05279440,68.78820254

>  <CHROM.1>
-176.71114421,-144.28213170,-178.39812806,-4.26331030,2.48347375,40.10520833
15.30505645,84.15915518,2.61406148,0.52144753,0.32244843

>  <Name>

>  <RI>
3.36268e+07

>  <Rbt.Current_Directory>
/extra/banzai2/j5wagner/CELPP/2016_10_17_rdock_implementation/normal_run/tutorialVideo/tutorial_rdock_implementation/full_week_run/4-docking/1fcz/LMCSS_1fcz_docking

>  <Rbt.Executable>
rbdock ($Id: //depot/dev/client3/rdock/2013.1/src/exe/rbdock.cxx#4 $)

>  <Rbt.Library>
libRbt.so (2013.1, Build901 2013/11/27)

>  <Rbt.Parameter_File>
/home/j5wagner/env_00/source/rDock/rDock_2013.1_src//data/scripts/dock.prm

>  <Rbt.Receptor>
/extra/banzai2/j5wagner/CELPP/2016_10_17_rdock_implementation/normal_run/tutorialVideo/tutorial_rdock_implementation/full_week_run/4-docking/1fcz/LMCSS_1fcz_tech_prep/rDockGridGenInput.prm

>  <SCORE>
-50.2669

>  <SCORE.INTER>
-28.5471

>  <SCORE.INTER.CONST>
1

>  <SCORE.INTER.POLAR>
-1.10674

>  <SCORE.INTER.REPUL>
0

>  <SCORE.INTER.ROT>
4

>  <SCORE.INTER.VDW>
-34.1842

>  <SCORE.INTER.norm>
-1.0573

>  <SCORE.INTRA>
-2.07134

>  <SCORE.INTRA.DIHEDRAL>
-5.8029

>  <SCORE.INTRA.DIHEDRAL.0>
10.7811

>  <SCORE.INTRA.POLAR>
0

>  <SCORE.INTRA.POLAR.0>
0

>  <SCORE.INTRA.REPUL>
0

>  <SCORE.INTRA.REPUL.0>
0

>  <SCORE.INTRA.VDW>
0.83011

>  <SCORE.INTRA.VDW.0>
-0.812999

>  <SCORE.INTRA.norm>
-0.0767164

>  <SCORE.RESTR>
0

>  <SCORE.RESTR.CAVITY>
0

>  <SCORE.RESTR.norm>
0

>  <SCORE.SYSTEM>
-19.6484

>  <SCORE.SYSTEM.CONST>
0

>  <SCORE.SYSTEM.DIHEDRAL>
1.39209

>  <SCORE.SYSTEM.POLAR>
-4.98609

>  <SCORE.SYSTEM.VDW>
-3.39173

>  <SCORE.SYSTEM.norm>
-0.727718

>  <SCORE.heavy>
27

>  <SCORE.norm>
-1.86174

$$$$

  rDOCK(R)          3D
libRbt.so/2013.1/901 2013/11/27
 28 30  0  0  0  0  0  0  0  0999 V2000
   39.3853   14.8918   85.3366 C   0  0  0  0  0  0
   40.3774   13.9161   84.8374 C   0  0  0  0  0  0
   40.1886   12.6962   85.0920 O   0  0  0  0  0  0
   41.5852   14.3095   84.0717 C   0  0  0  0  0  0
   41.9718   13.5724   82.9462 C   0  0  0  0  0  0
   43.1353   13.8963   82.2106 C   0  0  0  0  0  0
   43.8800   15.0554   82.5850 C   0  0  0  0  0  0
   43.5084   15.7444   83.7601 C   0  0  0  0  0  0
   42.3832   15.3761   84.4910 C   0  0  0  0  0  0
   45.1171   15.5282   81.8064 C   0  0  0  0  0  0
   45.0574   17.0563   81.5579 C   0  0  0  0  0  0
   46.3841   15.2104   82.6329 C   0  0  0  0  0  0
   45.2064   14.8514   80.4161 C   0  0  0  0  0  0
   44.9359   13.3535   80.4854 C   0  0  0  0  0  0
   43.5059   13.0379   80.9909 C   0  0  0  0  0  0
   43.4812   11.5313   81.3516 C   0  0  0  0  0  0
   42.4784   13.2942   79.8645 C   0  0  0  0  0  0
   38.3876   14.5516   86.1662 C   0  0  0  0  0  0
   37.3814   15.5096   86.6868 C   0  0  0  0  0  0
   37.3755   16.8729   86.3346 C   0  0  0  0  0  0
   36.4103   17.7379   86.8595 C   0  0  0  0  0  0
   35.4317   17.2627   87.7494 C   0  0  0  0  0  0
   34.4039   18.1693   88.3169 C   0  0  0  0  0  0
   33.4235   17.6875   88.9446 O   0  0  0  0  0  0
   34.4794   19.5533   88.1638 O   0  0  0  0  0  0
   35.4562   15.9080   88.1215 C   0  0  0  0  0  0
   36.4206   15.0434   87.5970 C   0  0  0  0  0  0
   35.2152   20.0044   87.6359 H   0  0  0  0  0  0
  1  2  1  0  0  0
  2  3  2  0  0  0
  2  4  1  0  0  0
  4  5  2  0  0  0
  5  6  1  0  0  0
  6  7  2  0  0  0
  7  8  1  0  0  0
  8  9  2  0  0  0
  7 10  1  0  0  0
 10 11  1  0  0  0
 10 12  1  0  0  0
 10 13  1  0  0  0
 13 14  1  0  0  0
 14 15  1  0  0  0
 15 16  1  0  0  0
 15 17  1  0  0  0
  1 18  2  0  0  0
 18 19  1  0  0  0
 19 20  2  0  0  0
 20 21  1  0  0  0
 21 22  2  0  0  0
 22 23  1  0  0  0
 23 24  2  0  0  0
 23 25  1  0  0  0
 22 26  1  0  0  0
 26 27  2  0  0  0
  9  4  1  0  0  0
 27 19  1  0  0  0
 15  6  1  0  0  0
 25 28  1  0  0  0
M  END
>  <CHROM.0>
-160.32757090,61.36703030,-64.00940067,-54.63984807,-178.73101536,-60.13855168
179.32421605,66.11830269

>  <CHROM.1>
7.66544534,-137.08654119,0.96391214,169.21173065,2.11376106,40.42244091,15.26636364
84.41490687,2.74789466,0.54519302,0.22700783

>  <Name>

>  <RI>
3.36268e+07

>  <Rbt.Current_Directory>
/extra/banzai2/j5wagner/CELPP/2016_10_17_rdock_implementation/normal_run/tutorialVideo/tutorial_rdock_implementation/full_week_run/4-docking/1fcz/LMCSS_1fcz_docking

>  <Rbt.Executable>
rbdock ($Id: //depot/dev/client3/rdock/2013.1/src/exe/rbdock.cxx#4 $)

>  <Rbt.Library>
libRbt.so (2013.1, Build901 2013/11/27)

>  <Rbt.Parameter_File>
/home/j5wagner/env_00/source/rDock/rDock_2013.1_src//data/scripts/dock.prm

>  <Rbt.Receptor>
/extra/banzai2/j5wagner/CELPP/2016_10_17_rdock_implementation/normal_run/tutorialVideo/tutorial_rdock_implementation/full_week_run/4-docking/1fcz/LMCSS_1fcz_tech_prep/rDockGridGenInput.prm

>  <SCORE>
-49.7554

>  <SCORE.INTER>
-30.1721

>  <SCORE.INTER.CONST>
1

>  <SCORE.INTER.POLAR>
-1.83857

>  <SCORE.INTER.REPUL>
0

>  <SCORE.INTER.ROT>
4

>  <SCORE.INTER.VDW>
-33.3209

>  <SCORE.INTER.norm>
-1.11748

>  <SCORE.INTRA>
-1.43566

>  <SCORE.INTRA.DIHEDRAL>
-3.67123

>  <SCORE.INTRA.DIHEDRAL.0>
10.7811

>  <SCORE.INTRA.POLAR>
0

>  <SCORE.INTRA.POLAR.0>
0

>  <SCORE.INTRA.REPUL>
0

>  <SCORE.INTRA.REPUL.0>
0

>  <SCORE.INTRA.VDW>
0.39995

>  <SCORE.INTRA.VDW.0>
-0.812999

>  <SCORE.INTRA.norm>
-0.0531727

>  <SCORE.RESTR>
0

>  <SCORE.RESTR.CAVITY>
0

>  <SCORE.RESTR.norm>
0

>  <SCORE.SYSTEM>
-18.1477

>  <SCORE.SYSTEM.CONST>
0

>  <SCORE.SYSTEM.DIHEDRAL>
0.951023

>  <SCORE.SYSTEM.POLAR>
-4.7272

>  <SCORE.SYSTEM.VDW>
-2.55072

>  <SCORE.SYSTEM.norm>
-0.672137

>  <SCORE.heavy>
27

>  <SCORE.norm>
-1.84279

$$$$

  rDOCK(R)          3D
libRbt.so/2013.1/901 2013/11/27
 28 30  0  0  0  0  0  0  0  0999 V2000
   38.7907   13.8433   85.1631 C   0  0  0  0  0  0
   39.8558   13.0964   84.4609 C   0  0  0  0  0  0
   39.7608   11.8408   84.4052 O   0  0  0  0  0  0
   41.0312   13.7542   83.8399 C   0  0  0  0  0  0
   41.5767   13.2417   82.6569 C   0  0  0  0  0  0
   42.7168   13.8211   82.0535 C   0  0  0  0  0  0
   43.2663   15.0068   82.6283 C   0  0  0  0  0  0
   42.7401   15.4672   83.8551 C   0  0  0  0  0  0
   41.6444   14.8502   84.4507 C   0  0  0  0  0  0
   44.4598   15.7483   82.0070 C   0  0  0  0  0  0
   44.1925   17.2736   81.9583 C   0  0  0  0  0  0
   45.7161   15.4934   82.8710 C   0  0  0  0  0  0
   44.7162   15.2917   80.5495 C   0  0  0  0  0  0
   44.6620   13.7761   80.4019 C   0  0  0  0  0  0
   43.2689   13.2009   80.7602 C   0  0  0  0  0  0
   43.4440   11.6694   80.9169 C   0  0  0  0  0  0
   42.2734   13.4701   79.6084 C   0  0  0  0  0  0
   38.7071   15.1819   85.1390 C   0  0  0  0  0  0
   37.6472   15.9572   85.8296 C   0  0  0  0  0  0
   37.5361   17.3568   85.7221 C   0  0  0  0  0  0
   36.5238   18.0431   86.4002 C   0  0  0  0  0  0
   35.6023   17.3488   87.2027 C   0  0  0  0  0  0
   34.5256   18.0638   87.9308 C   0  0  0  0  0  0
   34.2588   19.2592   87.6355 O   0  0  0  0  0  0
   33.8005   17.4545   88.9542 O   0  0  0  0  0  0
   35.7319   15.9556   87.3312 C   0  0  0  0  0  0
   36.7432   15.2696   86.6536 C   0  0  0  0  0  0
   33.9871   16.5110   89.2680 H   0  0  0  0  0  0
  1  2  1  0  0  0
  2  3  2  0  0  0
  2  4  1  0  0  0
  4  5  2  0  0  0
  5  6  1  0  0  0
  6  7  2  0  0  0
  7  8  1  0  0  0
  8  9  2  0  0  0
  7 10  1  0  0  0
 10 11  1  0  0  0
 10 12  1  0  0  0
 10 13  1  0  0  0
 13 14  1  0  0  0
 14 15  1  0  0  0
 15 16  1  0  0  0
 15 17  1  0  0  0
  1 18  2  0  0  0
 18 19  1  0  0  0
 19 20  2  0  0  0
 20 21  1  0  0  0
 21 22  2  0  0  0
 22 23  1  0  0  0
 23 24  2  0  0  0
 23 25  1  0  0  0
 22 26  1  0  0  0
 26 27  2  0  0  0
  9  4  1  0  0  0
 27 19  1  0  0  0
 15  6  1  0  0  0
 25 28  1  0  0  0
M  END
>  <CHROM.0>
9.34039026,179.08220137,-64.41163865,67.80702150,-55.40852103,-59.66454661
168.63103562,71.09323353

>  <CHROM.1>
-171.54822353,-144.96945053,-176.07651479,14.01471587,1.77371455,40.17598396
15.22243580,84.12943353,2.72531457,0.54376326,0.22708392

>  <Name>

>  <RI>
3.36268e+07

>  <Rbt.Current_Directory>
/extra/banzai2/j5wagner/CELPP/2016_10_17_rdock_implementation/normal_run/tutorialVideo/tutorial_rdock_implementation/full_week_run/4-docking/1fcz/LMCSS_1fcz_docking

>  <Rbt.Executable>
rbdock ($Id: //depot/dev/client3/rdock/2013.1/src/exe/rbdock.cxx#4 $)

>  <Rbt.Library>
libRbt.so (2013.1, Build901 2013/11/27)

>  <Rbt.Parameter_File>
/home/j5wagner/env_00/source/rDock/rDock_2013.1_src//data/scripts/dock.prm

>  <Rbt.Receptor>
/extra/banzai2/j5wagner/CELPP/2016_10_17_rdock_implementation/normal_run/tutorialVideo/tutorial_rdock_implementation/full_week_run/4-docking/1fcz/LMCSS_1fcz_tech_prep/rDockGridGenInput.prm

>  <SCORE>
-46.8353

>  <SCORE.INTER>
-29.1321

>  <SCORE.INTER.CONST>
1

>  <SCORE.INTER.POLAR>
-1.50854

>  <SCORE.INTER.REPUL>
0

>  <SCORE.INTER.ROT>
4

>  <SCORE.INTER.VDW>
-33.403

>  <SCORE.INTER.norm>
-1.07896

>  <SCORE.INTRA>
-1.82633

>  <SCORE.INTRA.DIHEDRAL>
-5.04717

>  <SCORE.INTRA.DIHEDRAL.0>
10.7811

>  <SCORE.INTRA.POLAR>
0

>  <SCORE.INTRA.POLAR.0>
0

>  <SCORE.INTRA.REPUL>
0

>  <SCORE.INTRA.REPUL.0>
0

>  <SCORE.INTRA.VDW>
0.697256

>  <SCORE.INTRA.VDW.0>
-0.812999

>  <SCORE.INTRA.norm>
-0.0676419

>  <SCORE.RESTR>
0

>  <SCORE.RESTR.CAVITY>
0

>  <SCORE.RESTR.norm>
0

>  <SCORE.SYSTEM>
-15.877

>  <SCORE.SYSTEM.CONST>
0

>  <SCORE.SYSTEM.DIHEDRAL>
1.78233

>  <SCORE.SYSTEM.POLAR>
-4.37861

>  <SCORE.SYSTEM.REPUL>
0.202354

>  <SCORE.SYSTEM.VDW>
-2.89263

>  <SCORE.SYSTEM.norm>
-0.588036

>  <SCORE.heavy>
27

>  <SCORE.norm>
-1.73464

$$$$

  rDOCK(R)          3D
libRbt.so/2013.1/901 2013/11/27
 28 30  0  0  0  0  0  0  0  0999 V2000
   40.0749   15.6533   85.6534 C   0  0  0  0  0  0
   41.4157   15.8001   85.0485 C   0  0  0  0  0  0
   42.1974   16.6574   85.5412 O   0  0  0  0  0  0
   41.8705   15.0013   83.8845 C   0  0  0  0  0  0
   43.1406   15.2203   83.3379 C   0  0  0  0  0  0
   43.5962   14.5023   82.2081 C   0  0  0  0  0  0
   42.7647   13.4734   81.6712 C   0  0  0  0  0  0
   41.4641   13.3149   82.1976 C   0  0  0  0  0  0
   41.0248   14.0671   83.2825 C   0  0  0  0  0  0
   43.2005   12.5928   80.4902 C   0  0  0  0  0  0
   42.8964   11.1010   80.7772 C   0  0  0  0  0  0
   42.4204   13.0227   79.2267 C   0  0  0  0  0  0
   44.7245   12.6982   80.2347 C   0  0  0  0  0  0
   45.2168   14.1397   80.2703 C   0  0  0  0  0  0
   44.9984   14.8008   81.6542 C   0  0  0  0  0  0
   45.1987   16.3247   81.4588 C   0  0  0  0  0  0
   46.0557   14.2872   82.6584 C   0  0  0  0  0  0
   39.4434   16.6629   86.2709 C   0  0  0  0  0  0
   38.0965   16.5459   86.8821 C   0  0  0  0  0  0
   37.4536   15.3081   87.0751 C   0  0  0  0  0  0
   36.1794   15.2514   87.6482 C   0  0  0  0  0  0
   35.5173   16.4281   88.0385 C   0  0  0  0  0  0
   34.1639   16.3836   88.6442 C   0  0  0  0  0  0
   33.6138   17.4514   89.0243 O   0  0  0  0  0  0
   33.4781   15.1827   88.8234 O   0  0  0  0  0  0
   36.1486   17.6641   87.8193 C   0  0  0  0  0  0
   37.4220   17.7210   87.2469 C   0  0  0  0  0  0
   33.8619   14.2886   88.5460 H   0  0  0  0  0  0
  1  2  1  0  0  0
  2  3  2  0  0  0
  2  4  1  0  0  0
  4  5  2  0  0  0
  5  6  1  0  0  0
  6  7  2  0  0  0
  7  8  1  0  0  0
  8  9  2  0  0  0
  7 10  1  0  0  0
 10 11  1  0  0  0
 10 12  1  0  0  0
 10 13  1  0  0  0
 13 14  1  0  0  0
 14 15  1  0  0  0
 15 16  1  0  0  0
 15 17  1  0  0  0
  1 18  2  0  0  0
 18 19  1  0  0  0
 19 20  2  0  0  0
 20 21  1  0  0  0
 21 22  2  0  0  0
 22 23  1  0  0  0
 23 24  2  0  0  0
 23 25  1  0  0  0
 22 26  1  0  0  0
 26 27  2  0  0  0
  9  4  1  0  0  0
 27 19  1  0  0  0
 15  6  1  0  0  0
 25 28  1  0  0  0
M  END
>  <CHROM.0>
-50.19176776,178.46055523,-64.96101043,67.55708856,-55.38819193,-177.13251538
66.24077369,69.79611055

>  <CHROM.1>
28.26273339,178.12960689,11.34554310,177.67414908,-0.43650410,40.49385604
15.07481677,84.33809238,-2.52258741,-0.37318537,-2.41567522

>  <Name>

>  <RI>
3.36268e+07

>  <Rbt.Current_Directory>
/extra/banzai2/j5wagner/CELPP/2016_10_17_rdock_implementation/normal_run/tutorialVideo/tutorial_rdock_implementation/full_week_run/4-docking/1fcz/LMCSS_1fcz_docking

>  <Rbt.Executable>
rbdock ($Id: //depot/dev/client3/rdock/2013.1/src/exe/rbdock.cxx#4 $)

>  <Rbt.Library>
libRbt.so (2013.1, Build901 2013/11/27)

>  <Rbt.Parameter_File>
/home/j5wagner/env_00/source/rDock/rDock_2013.1_src//data/scripts/dock.prm

>  <Rbt.Receptor>
/extra/banzai2/j5wagner/CELPP/2016_10_17_rdock_implementation/normal_run/tutorialVideo/tutorial_rdock_implementation/full_week_run/4-docking/1fcz/LMCSS_1fcz_tech_prep/rDockGridGenInput.prm

>  <SCORE>
-46.9391

>  <SCORE.INTER>
-27.629

>  <SCORE.INTER.CONST>
1

>  <SCORE.INTER.POLAR>
-1.54202

>  <SCORE.INTER.REPUL>
0

>  <SCORE.INTER.ROT>
4

>  <SCORE.INTER.VDW>
-31.7861

>  <SCORE.INTER.norm>
-1.0233

>  <SCORE.INTRA>
-3.00754

>  <SCORE.INTRA.DIHEDRAL>
-7.53527

>  <SCORE.INTRA.DIHEDRAL.0>
10.7811

>  <SCORE.INTRA.POLAR>
0

>  <SCORE.INTRA.POLAR.0>
0

>  <SCORE.INTRA.REPUL>
0

>  <SCORE.INTRA.REPUL.0>
0

>  <SCORE.INTRA.VDW>
0.760095

>  <SCORE.INTRA.VDW.0>
-0.812999

>  <SCORE.INTRA.norm>
-0.11139

>  <SCORE.RESTR>
0

>  <SCORE.RESTR.CAVITY>
0

>  <SCORE.RESTR.norm>
0

>  <SCORE.SYSTEM>
-16.3026

>  <SCORE.SYSTEM.CONST>
0

>  <SCORE.SYSTEM.DIHEDRAL>
3.9944

>  <SCORE.SYSTEM.POLAR>
-4.38351

>  <SCORE.SYSTEM.REPUL>
0.109745

>  <SCORE.SYSTEM.VDW>
-3.94454

>  <SCORE.SYSTEM.norm>
-0.603798

>  <SCORE.heavy>
27

>  <SCORE.norm>
-1.73849

$$$$

  rDOCK(R)          3D
libRbt.so/2013.1/901 2013/11/27
 28 30  0  0  0  0  0  0  0  0999 V2000
   38.8113   13.4792   85.5071 C   0  0  0  0  0  0
   39.7833   12.8531   84.5860 C   0  0  0  0  0  0
   39.6738   11.6181   84.3590 O   0  0  0  0  0  0
   40.8841   13.6059   83.9368 C   0  0  0  0  0  0
   41.3951   13.1771   82.7060 C   0  0  0  0  0  0
   42.4662   13.8488   82.0726 C   0  0  0  0  0  0
   42.9756   15.0404   82.6718 C   0  0  0  0  0  0
   42.4892   15.4165   83.9429 C   0  0  0  0  0  0
   41.4642   14.7103   84.5646 C   0  0  0  0  0  0
   44.0896   15.8778   82.0252 C   0  0  0  0  0  0
   43.7320   17.3849   82.0585 C   0  0  0  0  0  0
   45.4025   15.6631   82.8125 C   0  0  0  0  0  0
   44.2946   15.4988   80.5375 C   0  0  0  0  0  0
   44.3206   13.9902   80.3250 C   0  0  0  0  0  0
   42.9842   13.3176   80.7267 C   0  0  0  0  0  0
   43.2559   11.7943   80.8055 C   0  0  0  0  0  0
   41.9152   13.5743   79.6397 C   0  0  0  0  0  0
   38.5855   14.8011   85.5340 C   0  0  0  0  0  0
   37.6132   15.4561   86.4435 C   0  0  0  0  0  0
   37.0755   14.8114   87.5739 C   0  0  0  0  0  0
   36.1549   15.4692   88.3957 C   0  0  0  0  0  0
   35.7483   16.7830   88.1063 C   0  0  0  0  0  0
   34.7699   17.4918   88.9670 C   0  0  0  0  0  0
   35.0066   17.6339   90.1963 O   0  0  0  0  0  0
   33.5749   17.9989   88.4576 O   0  0  0  0  0  0
   36.2646   17.4145   86.9623 C   0  0  0  0  0  0
   37.1846   16.7576   86.1410 C   0  0  0  0  0  0
   33.2942   17.8698   87.4942 H   0  0  0  0  0  0
  1  2  1  0  0  0
  2  3  2  0  0  0
  2  4  1  0  0  0
  4  5  2  0  0  0
  5  6  1  0  0  0
  6  7  2  0  0  0
  7  8  1  0  0  0
  8  9  2  0  0  0
  7 10  1  0  0  0
 10 11  1  0  0  0
 10 12  1  0  0  0
 10 13  1  0  0  0
 13 14  1  0  0  0
 14 15  1  0  0  0
 15 16  1  0  0  0
 15 17  1  0  0  0
  1 18  2  0  0  0
 18 19  1  0  0  0
 19 20  2  0  0  0
 20 21  1  0  0  0
 21 22  2  0  0  0
 22 23  1  0  0  0
 23 24  2  0  0  0
 23 25  1  0  0  0
 22 26  1  0  0  0
 26 27  2  0  0  0
  9  4  1  0  0  0
 27 19  1  0  0  0
 15  6  1  0  0  0
 25 28  1  0  0  0
M  END
>  <CHROM.0>
-158.13873883,60.90280156,-64.64653166,70.36084929,-177.61637962,-174.93454329
-178.52648627,68.82499893

>  <CHROM.1>
-160.62370672,-152.66673049,15.80229150,56.78907764,3.16969177,40.05343495
15.03509532,84.44415854,2.71590041,0.62643715,0.30816499

>  <Name>

>  <RI>
3.36268e+07

>  <Rbt.Current_Directory>
/extra/banzai2/j5wagner/CELPP/2016_10_17_rdock_implementation/normal_run/tutorialVideo/tutorial_rdock_implementation/full_week_run/4-docking/1fcz/LMCSS_1fcz_docking

>  <Rbt.Executable>
rbdock ($Id: //depot/dev/client3/rdock/2013.1/src/exe/rbdock.cxx#4 $)

>  <Rbt.Library>
libRbt.so (2013.1, Build901 2013/11/27)

>  <Rbt.Parameter_File>
/home/j5wagner/env_00/source/rDock/rDock_2013.1_src//data/scripts/dock.prm

>  <Rbt.Receptor>
/extra/banzai2/j5wagner/CELPP/2016_10_17_rdock_implementation/normal_run/tutorialVideo/tutorial_rdock_implementation/full_week_run/4-docking/1fcz/LMCSS_1fcz_tech_prep/rDockGridGenInput.prm

>  <SCORE>
-44.7755

>  <SCORE.INTER>
-27.2474

>  <SCORE.INTER.CONST>
1

>  <SCORE.INTER.POLAR>
-1.17626

>  <SCORE.INTER.REPUL>
0

>  <SCORE.INTER.ROT>
4

>  <SCORE.INTER.VDW>
-32.6482

>  <SCORE.INTER.norm>
-1.00916

>  <SCORE.INTRA>
1.85773

>  <SCORE.INTRA.DIHEDRAL>
3.62529

>  <SCORE.INTRA.DIHEDRAL.0>
10.7811

>  <SCORE.INTRA.POLAR>
0

>  <SCORE.INTRA.POLAR.0>
0

>  <SCORE.INTRA.REPUL>
0

>  <SCORE.INTRA.REPUL.0>
0

>  <SCORE.INTRA.VDW>
0.0450913

>  <SCORE.INTRA.VDW.0>
-0.812999

>  <SCORE.INTRA.norm>
0.068805

>  <SCORE.RESTR>
0

>  <SCORE.RESTR.CAVITY>
0

>  <SCORE.RESTR.norm>
0

>  <SCORE.SYSTEM>
-19.3858

>  <SCORE.SYSTEM.CONST>
0

>  <SCORE.SYSTEM.DIHEDRAL>
1.74635

>  <SCORE.SYSTEM.POLAR>
-4.9476

>  <SCORE.SYSTEM.VDW>
-3.43711

>  <SCORE.SYSTEM.norm>
-0.717991

>  <SCORE.heavy>
27

>  <SCORE.norm>
-1.65835

$$$$

  rDOCK(R)          3D
libRbt.so/2013.1/901 2013/11/27
 28 30  0  0  0  0  0  0  0  0999 V2000
   39.2966   14.8878   85.2396 C   0  0  0  0  0  0
   40.2731   13.9059   84.7223 C   0  0  0  0  0  0
   40.0572   12.6837   84.9417 O   0  0  0  0  0  0
   41.4956   14.2951   83.9780 C   0  0  0  0  0  0
   41.9080   13.5473   82.8688 C   0  0  0  0  0  0
   43.0858   13.8672   82.1545 C   0  0  0  0  0  0
   43.8190   15.0325   82.5322 C   0  0  0  0  0  0
   43.4207   15.7327   83.6919 C   0  0  0  0  0  0
   42.2815   15.3685   84.4028 C   0  0  0  0  0  0
   45.0708   15.5011   81.7748 C   0  0  0  0  0  0
   45.0119   17.0262   81.5089 C   0  0  0  0  0  0
   46.3211   15.1960   82.6311 C   0  0  0  0  0  0
   45.1915   14.8100   80.3939 C   0  0  0  0  0  0
   44.9240   13.3120   80.4734 C   0  0  0  0  0  0
   43.4846   12.9972   80.9519 C   0  0  0  0  0  0
   43.4568   11.4945   81.3280 C   0  0  0  0  0  0
   42.4803   13.2384   79.8016 C   0  0  0  0  0  0
   38.3226   14.5573   86.1005 C   0  0  0  0  0  0
   37.3325   15.5218   86.6398 C   0  0  0  0  0  0
   37.3612   16.8950   86.3294 C   0  0  0  0  0  0
   36.4099   17.7655   86.8705 C   0  0  0  0  0  0
   35.4112   17.2859   87.7353 C   0  0  0  0  0  0
   34.3978   18.1981   88.3197 C   0  0  0  0  0  0
   33.3998   17.7200   88.9220 O   0  0  0  0  0  0
   34.5063   19.5841   88.2099 O   0  0  0  0  0  0
   35.4011   15.9204   88.0660 C   0  0  0  0  0  0
   36.3514   15.0503   87.5253 C   0  0  0  0  0  0
   35.2631   20.0343   87.7118 H   0  0  0  0  0  0
  1  2  1  0  0  0
  2  3  2  0  0  0
  2  4  1  0  0  0
  4  5  2  0  0  0
  5  6  1  0  0  0
  6  7  2  0  0  0
  7  8  1  0  0  0
  8  9  2  0  0  0
  7 10  1  0  0  0
 10 11  1  0  0  0
 10 12  1  0  0  0
 10 13  1  0  0  0
 13 14  1  0  0  0
 14 15  1  0  0  0
 15 16  1  0  0  0
 15 17  1  0  0  0
  1 18  2  0  0  0
 18 19  1  0  0  0
 19 20  2  0  0  0
 20 21  1  0  0  0
 21 22  2  0  0  0
 22 23  1  0  0  0
 23 24  2  0  0  0
 23 25  1  0  0  0
 22 26  1  0  0  0
 26 27  2  0  0  0
  9  4  1  0  0  0
 27 19  1  0  0  0
 15  6  1  0  0  0
 25 28  1  0  0  0
M  END
>  <CHROM.0>
-158.84205068,178.46541056,-64.11063363,68.58236331,-175.98735244,-178.04240555
-178.92222636,70.22951060

>  <CHROM.1>
10.88978386,-139.73725840,-2.49181857,169.20180847,1.47531156,40.37599544
15.25806690,84.36909638,2.72943076,0.53870093,0.25112167

>  <Name>

>  <RI>
3.36268e+07

>  <Rbt.Current_Directory>
/extra/banzai2/j5wagner/CELPP/2016_10_17_rdock_implementation/normal_run/tutorialVideo/tutorial_rdock_implementation/full_week_run/4-docking/1fcz/LMCSS_1fcz_docking

>  <Rbt.Executable>
rbdock ($Id: //depot/dev/client3/rdock/2013.1/src/exe/rbdock.cxx#4 $)

>  <Rbt.Library>
libRbt.so (2013.1, Build901 2013/11/27)

>  <Rbt.Parameter_File>
/home/j5wagner/env_00/source/rDock/rDock_2013.1_src//data/scripts/dock.prm

>  <Rbt.Receptor>
/extra/banzai2/j5wagner/CELPP/2016_10_17_rdock_implementation/normal_run/tutorialVideo/tutorial_rdock_implementation/full_week_run/4-docking/1fcz/LMCSS_1fcz_tech_prep/rDockGridGenInput.prm

>  <SCORE>
-51.102

>  <SCORE.INTER>
-30.0208

>  <SCORE.INTER.CONST>
1

>  <SCORE.INTER.POLAR>
-1.85958

>  <SCORE.INTER.REPUL>
0

>  <SCORE.INTER.ROT>
4

>  <SCORE.INTER.VDW>
-33.0983

>  <SCORE.INTER.norm>
-1.11188

>  <SCORE.INTRA>
-1.61298

>  <SCORE.INTRA.DIHEDRAL>
-4.07211

>  <SCORE.INTRA.DIHEDRAL.0>
10.7811

>  <SCORE.INTRA.POLAR>
0

>  <SCORE.INTRA.POLAR.0>
0

>  <SCORE.INTRA.REPUL>
0

>  <SCORE.INTRA.REPUL.0>
0

>  <SCORE.INTRA.VDW>
0.423071

>  <SCORE.INTRA.VDW.0>
-0.812999

>  <SCORE.INTRA.norm>
-0.0597401

>  <SCORE.RESTR>
0

>  <SCORE.RESTR.CAVITY>
0

>  <SCORE.RESTR.norm>
0

>  <SCORE.SYSTEM>
-19.4682

>  <SCORE.SYSTEM.CONST>
0

>  <SCORE.SYSTEM.DIHEDRAL>
1.62186

>  <SCORE.SYSTEM.POLAR>
-4.94229

>  <SCORE.SYSTEM.VDW>
-3.47535

>  <SCORE.SYSTEM.norm>
-0.721045

>  <SCORE.heavy>
27

>  <SCORE.norm>
-1.89267

$$$$

  rDOCK(R)          3D
libRbt.so/2013.1/901 2013/11/27
 28 30  0  0  0  0  0  0  0  0999 V2000
   38.5079   13.8254   85.2644 C   0  0  0  0  0  0
   39.5332   13.0512   84.5331 C   0  0  0  0  0  0
   39.3872   11.8018   84.4535 O   0  0  0  0  0  0
   40.7261   13.6742   83.9097 C   0  0  0  0  0  0
   41.2168   13.1849   82.6934 C   0  0  0  0  0  0
   42.3709   13.7307   82.0853 C   0  0  0  0  0  0
   42.9939   14.8620   82.6937 C   0  0  0  0  0  0
   42.5208   15.2966   83.9511 C   0  0  0  0  0  0
   41.4090   14.7113   84.5488 C   0  0  0  0  0  0
   44.2092   15.5677   82.0730 C   0  0  0  0  0  0
   44.0198   17.1052   82.0931 C   0  0  0  0  0  0
   45.4705   15.2137   82.8936 C   0  0  0  0  0  0
   44.4078   15.1602   80.5920 C   0  0  0  0  0  0
   44.2721   13.6568   80.3844 C   0  0  0  0  0  0
   42.8600   13.1381   80.7543 C   0  0  0  0  0  0
   42.9596   11.5945   80.8440 C   0  0  0  0  0  0
   41.8531   13.5052   79.6400 C   0  0  0  0  0  0
   38.5197   15.1652   85.3284 C   0  0  0  0  0  0
   37.5019   15.9681   86.0501 C   0  0  0  0  0  0
   36.4079   15.3860   86.7187 C   0  0  0  0  0  0
   35.4702   16.1872   87.3777 C   0  0  0  0  0  0
   35.6014   17.5865   87.3815 C   0  0  0  0  0  0
   34.6125   18.4491   88.0732 C   0  0  0  0  0  0
   33.6647   17.9227   88.7149 O   0  0  0  0  0  0
   34.6891   19.8406   88.0233 O   0  0  0  0  0  0
   36.6781   18.1669   86.6901 C   0  0  0  0  0  0
   37.6154   17.3665   86.0317 C   0  0  0  0  0  0
   35.4412   20.3292   87.5552 H   0  0  0  0  0  0
  1  2  1  0  0  0
  2  3  2  0  0  0
  2  4  1  0  0  0
  4  5  2  0  0  0
  5  6  1  0  0  0
  6  7  2  0  0  0
  7  8  1  0  0  0
  8  9  2  0  0  0
  7 10  1  0  0  0
 10 11  1  0  0  0
 10 12  1  0  0  0
 10 13  1  0  0  0
 13 14  1  0  0  0
 14 15  1  0  0  0
 15 16  1  0  0  0
 15 17  1  0  0  0
  1 18  2  0  0  0
 18 19  1  0  0  0
 19 20  2  0  0  0
 20 21  1  0  0  0
 21 22  2  0  0  0
 22 23  1  0  0  0
 23 24  2  0  0  0
 23 25  1  0  0  0
 22 26  1  0  0  0
 26 27  2  0  0  0
  9  4  1  0  0  0
 27 19  1  0  0  0
 15  6  1  0  0  0
 25 28  1  0  0  0
M  END
>  <CHROM.0>
-159.28192526,59.23069587,-65.12521889,-57.32954695,-61.71177961,-175.07202779
-178.19289758,72.38451389

>  <CHROM.1>
-175.26469068,-143.46506020,-1.19040221,2.82828511,-3.03447518,39.97034217
15.25161282,84.21127727,2.64148300,0.53636533,0.28325316

>  <Name>

>  <RI>
3.36268e+07

>  <Rbt.Current_Directory>
/extra/banzai2/j5wagner/CELPP/2016_10_17_rdock_implementation/normal_run/tutorialVideo/tutorial_rdock_implementation/full_week_run/4-docking/1fcz/LMCSS_1fcz_docking

>  <Rbt.Executable>
rbdock ($Id: //depot/dev/client3/rdock/2013.1/src/exe/rbdock.cxx#4 $)

>  <Rbt.Library>
libRbt.so (2013.1, Build901 2013/11/27)

>  <Rbt.Parameter_File>
/home/j5wagner/env_00/source/rDock/rDock_2013.1_src//data/scripts/dock.prm

>  <Rbt.Receptor>
/extra/banzai2/j5wagner/CELPP/2016_10_17_rdock_implementation/normal_run/tutorialVideo/tutorial_rdock_implementation/full_week_run/4-docking/1fcz/LMCSS_1fcz_tech_prep/rDockGridGenInput.prm

>  <SCORE>
-52.0312

>  <SCORE.INTER>
-31.532

>  <SCORE.INTER.CONST>
1

>  <SCORE.INTER.POLAR>
-1.91739

>  <SCORE.INTER.REPUL>
0

>  <SCORE.INTER.ROT>
4

>  <SCORE.INTER.VDW>
-34.4129

>  <SCORE.INTER.norm>
-1.16785

>  <SCORE.INTRA>
-2.34652

>  <SCORE.INTRA.DIHEDRAL>
-5.67042

>  <SCORE.INTRA.DIHEDRAL.0>
10.7811

>  <SCORE.INTRA.POLAR>
0

>  <SCORE.INTRA.POLAR.0>
0

>  <SCORE.INTRA.REPUL>
0

>  <SCORE.INTRA.REPUL.0>
0

>  <SCORE.INTRA.VDW>
0.488691

>  <SCORE.INTRA.VDW.0>
-0.812999

>  <SCORE.INTRA.norm>
-0.086908

>  <SCORE.RESTR>
0

>  <SCORE.RESTR.CAVITY>
0

>  <SCORE.RESTR.norm>
0

>  <SCORE.SYSTEM>
-18.1526

>  <SCORE.SYSTEM.CONST>
0

>  <SCORE.SYSTEM.DIHEDRAL>
1.57199

>  <SCORE.SYSTEM.POLAR>
-4.75308

>  <SCORE.SYSTEM.VDW>
-2.77817

>  <SCORE.SYSTEM.norm>
-0.67232

>  <SCORE.heavy>
27

>  <SCORE.norm>
-1.92708

$$$$

  rDOCK(R)          3D
libRbt.so/2013.1/901 2013/11/27
 28 30  0  0  0  0  0  0  0  0999 V2000
   38.5073   13.8570   85.2634 C   0  0  0  0  0  0
   39.5087   13.0810   84.5017 C   0  0  0  0  0  0
   39.3374   11.8370   84.3941 O   0  0  0  0  0  0
   40.7064   13.6957   83.8792 C   0  0  0  0  0  0
   41.1938   13.2037   82.6625 C   0  0  0  0  0  0
   42.3521   13.7415   82.0552 C   0  0  0  0  0  0
   42.9833   14.8676   82.6647 C   0  0  0  0  0  0
   42.5131   15.3046   83.9224 C   0  0  0  0  0  0
   41.3969   14.7271   84.5193 C   0  0  0  0  0  0
   44.2040   15.5648   82.0449 C   0  0  0  0  0  0
   44.0259   17.1036   82.0662 C   0  0  0  0  0  0
   45.4624   15.2008   82.8656 C   0  0  0  0  0  0
   44.3999   15.1570   80.5636 C   0  0  0  0  0  0
   44.2531   13.6548   80.3547 C   0  0  0  0  0  0
   42.8371   13.1464   80.7238 C   0  0  0  0  0  0
   42.9253   11.6020   80.8123 C   0  0  0  0  0  0
   41.8333   13.5219   79.6096 C   0  0  0  0  0  0
   38.5354   15.1957   85.3438 C   0  0  0  0  0  0
   37.5415   16.0005   86.0962 C   0  0  0  0  0  0
   36.4455   15.4234   86.7657 C   0  0  0  0  0  0
   35.5309   16.2264   87.4543 C   0  0  0  0  0  0
   35.6878   17.6227   87.4875 C   0  0  0  0  0  0
   34.7235   18.4873   88.2107 C   0  0  0  0  0  0
   33.6788   17.9832   88.7024 O   0  0  0  0  0  0
   34.9298   19.8591   88.3531 O   0  0  0  0  0  0
   36.7663   18.1990   86.7954 C   0  0  0  0  0  0
   37.6804   17.3967   86.1074 C   0  0  0  0  0  0
   34.2901   20.4573   88.8595 H   0  0  0  0  0  0
  1  2  1  0  0  0
  2  3  2  0  0  0
  2  4  1  0  0  0
  4  5  2  0  0  0
  5  6  1  0  0  0
  6  7  2  0  0  0
  7  8  1  0  0  0
  8  9  2  0  0  0
  7 10  1  0  0  0
 10 11  1  0  0  0
 10 12  1  0  0  0
 10 13  1  0  0  0
 13 14  1  0  0  0
 14 15  1  0  0  0
 15 16  1  0  0  0
 15 17  1  0  0  0
  1 18  2  0  0  0
 18 19  1  0  0  0
 19 20  2  0  0  0
 20 21  1  0  0  0
 21 22  2  0  0  0
 22 23  1  0  0  0
 23 24  2  0  0  0
 23 25  1  0  0  0
 22 26  1  0  0  0
 26 27  2  0  0  0
  9  4  1  0  0  0
 27 19  1  0  0  0
 15  6  1  0  0  0
 25 28  1  0  0  0
M  END
>  <CHROM.0>
-159.63044769,-61.53831446,-65.91882528,175.63198503,61.39605762,61.62471440
-178.69653269,70.82942693

>  <CHROM.1>
-174.31106366,-145.10864180,-2.01591065,-6.56618914,-178.73942128,39.98533683
15.27192265,84.23109022,2.61358523,0.53565092,0.32228139

>  <Name>

>  <RI>
3.36268e+07

>  <Rbt.Current_Directory>
/extra/banzai2/j5wagner/CELPP/2016_10_17_rdock_implementation/normal_run/tutorialVideo/tutorial_rdock_implementation/full_week_run/4-docking/1fcz/LMCSS_1fcz_docking

>  <Rbt.Executable>
rbdock ($Id: //depot/dev/client3/rdock/2013.1/src/exe/rbdock.cxx#4 $)

>  <Rbt.Library>
libRbt.so (2013.1, Build901 2013/11/27)

>  <Rbt.Parameter_File>
/home/j5wagner/env_00/source/rDock/rDock_2013.1_src//data/scripts/dock.prm

>  <Rbt.Receptor>
/extra/banzai2/j5wagner/CELPP/2016_10_17_rdock_implementation/normal_run/tutorialVideo/tutorial_rdock_implementation/full_week_run/4-docking/1fcz/LMCSS_1fcz_tech_prep/rDockGridGenInput.prm

>  <SCORE>
-47.9173

>  <SCORE.INTER>
-27.1765

>  <SCORE.INTER.CONST>
1

>  <SCORE.INTER.POLAR>
-0.973669

>  <SCORE.INTER.REPUL>
0

>  <SCORE.INTER.ROT>
4

>  <SCORE.INTER.VDW>
-33.266

>  <SCORE.INTER.norm>
-1.00654

>  <SCORE.INTRA>
-2.38891

>  <SCORE.INTRA.DIHEDRAL>
-5.85657

>  <SCORE.INTRA.DIHEDRAL.0>
10.7811

>  <SCORE.INTRA.POLAR>
0

>  <SCORE.INTRA.POLAR.0>
0

>  <SCORE.INTRA.REPUL>
0

>  <SCORE.INTRA.REPUL.0>
0

>  <SCORE.INTRA.VDW>
0.539374

>  <SCORE.INTRA.VDW.0>
-0.812999

>  <SCORE.INTRA.norm>
-0.0884783

>  <SCORE.RESTR>
0

>  <SCORE.RESTR.CAVITY>
0

>  <SCORE.RESTR.norm>
0

>  <SCORE.SYSTEM>
-18.3519

>  <SCORE.SYSTEM.CONST>
0

>  <SCORE.SYSTEM.DIHEDRAL>
1.42807

>  <SCORE.SYSTEM.POLAR>
-4.80883

>  <SCORE.SYSTEM.VDW>
-2.7159

>  <SCORE.SYSTEM.norm>
-0.679699

>  <SCORE.heavy>
27

>  <SCORE.norm>
-1.77472

$$$$

  rDOCK(R)          3D
libRbt.so/2013.1/901 2013/11/27
 28 30  0  0  0  0  0  0  0  0999 V2000
   39.2332   15.0089   84.9315 C   0  0  0  0  0  0
   39.9287   13.8815   84.2754 C   0  0  0  0  0  0
   39.3596   12.7569   84.2699 O   0  0  0  0  0  0
   41.2646   14.0115   83.6443 C   0  0  0  0  0  0
   41.5296   13.3720   82.4275 C   0  0  0  0  0  0
   42.8006   13.4450   81.8121 C   0  0  0  0  0  0
   43.8053   14.2617   82.4136 C   0  0  0  0  0  0
   43.5364   14.8439   83.6716 C   0  0  0  0  0  0
   42.2897   14.7185   84.2765 C   0  0  0  0  0  0
   45.1929   14.4600   81.7847 C   0  0  0  0  0  0
   45.5931   15.9566   81.8001 C   0  0  0  0  0  0
   46.2345   13.6608   82.6009 C   0  0  0  0  0  0
   45.2162   14.0053   80.3043 C   0  0  0  0  0  0
   44.5263   12.6617   80.1028 C   0  0  0  0  0  0
   43.0248   12.7101   80.4811 C   0  0  0  0  0  0
   42.5397   11.2417   80.5760 C   0  0  0  0  0  0
   42.2224   13.4257   79.3701 C   0  0  0  0  0  0
   38.0241   14.8838   85.4988 C   0  0  0  0  0  0
   37.3052   15.9958   86.1682 C   0  0  0  0  0  0
   36.0069   15.8545   86.6946 C   0  0  0  0  0  0
   35.3680   16.9360   87.3091 C   0  0  0  0  0  0
   36.0089   18.1828   87.4091 C   0  0  0  0  0  0
   35.3420   19.3399   88.0549 C   0  0  0  0  0  0
   34.0897   19.3427   88.1925 O   0  0  0  0  0  0
   36.0624   20.4452   88.5065 O   0  0  0  0  0  0
   37.2931   18.3296   86.8584 C   0  0  0  0  0  0
   37.9318   17.2489   86.2445 C   0  0  0  0  0  0
   35.6227   21.2332   88.9639 H   0  0  0  0  0  0
  1  2  1  0  0  0
  2  3  2  0  0  0
  2  4  1  0  0  0
  4  5  2  0  0  0
  5  6  1  0  0  0
  6  7  2  0  0  0
  7  8  1  0  0  0
  8  9  2  0  0  0
  7 10  1  0  0  0
 10 11  1  0  0  0
 10 12  1  0  0  0
 10 13  1  0  0  0
 13 14  1  0  0  0
 14 15  1  0  0  0
 15 16  1  0  0  0
 15 17  1  0  0  0
  1 18  2  0  0  0
 18 19  1  0  0  0
 19 20  2  0  0  0
 20 21  1  0  0  0
 21 22  2  0  0  0
 22 23  1  0  0  0
 23 24  2  0  0  0
 23 25  1  0  0  0
 22 26  1  0  0  0
 26 27  2  0  0  0
  9  4  1  0  0  0
 27 19  1  0  0  0
 15  6  1  0  0  0
 25 28  1  0  0  0
M  END
>  <CHROM.0>
-158.77547439,-178.97240221,-65.33178158,-54.49679768,-58.66404104,-59.79231207
-177.61745746,70.28306520

>  <CHROM.1>
-0.92501051,-139.31901257,176.60702833,-19.40982194,-178.84023230,40.42922852
15.24956607,84.06182626,2.44462087,0.33781695,0.54430384

>  <Name>

>  <RI>
3.36268e+07

>  <Rbt.Current_Directory>
/extra/banzai2/j5wagner/CELPP/2016_10_17_rdock_implementation/normal_run/tutorialVideo/tutorial_rdock_implementation/full_week_run/4-docking/1fcz/LMCSS_1fcz_docking

>  <Rbt.Executable>
rbdock ($Id: //depot/dev/client3/rdock/2013.1/src/exe/rbdock.cxx#4 $)

>  <Rbt.Library>
libRbt.so (2013.1, Build901 2013/11/27)

>  <Rbt.Parameter_File>
/home/j5wagner/env_00/source/rDock/rDock_2013.1_src//data/scripts/dock.prm

>  <Rbt.Receptor>
/extra/banzai2/j5wagner/CELPP/2016_10_17_rdock_implementation/normal_run/tutorialVideo/tutorial_rdock_implementation/full_week_run/4-docking/1fcz/LMCSS_1fcz_tech_prep/rDockGridGenInput.prm

>  <SCORE>
-44.5837

>  <SCORE.INTER>
-25.3491

>  <SCORE.INTER.CONST>
1

>  <SCORE.INTER.POLAR>
-0.749848

>  <SCORE.INTER.REPUL>
0.011322

>  <SCORE.INTER.ROT>
4

>  <SCORE.INTER.VDW>
-32.2563

>  <SCORE.INTER.norm>
-0.938857

>  <SCORE.INTRA>
-1.01668

>  <SCORE.INTRA.DIHEDRAL>
-3.42881

>  <SCORE.INTRA.DIHEDRAL.0>
10.7811

>  <SCORE.INTRA.POLAR>
0

>  <SCORE.INTRA.POLAR.0>
0

>  <SCORE.INTRA.REPUL>
0

>  <SCORE.INTRA.REPUL.0>
0

>  <SCORE.INTRA.VDW>
0.697725

>  <SCORE.INTRA.VDW.0>
-0.812999

>  <SCORE.INTRA.norm>
-0.0376548

>  <SCORE.RESTR>
0

>  <SCORE.RESTR.CAVITY>
0

>  <SCORE.RESTR.norm>
0

>  <SCORE.SYSTEM>
-18.2179

>  <SCORE.SYSTEM.CONST>
0

>  <SCORE.SYSTEM.DIHEDRAL>
1.45321

>  <SCORE.SYSTEM.POLAR>
-4.74945

>  <SCORE.SYSTEM.VDW>
-2.79638

>  <SCORE.SYSTEM.norm>
-0.674737

>  <SCORE.heavy>
27

>  <SCORE.norm>
-1.65125

$$$$

  rDOCK(R)          3D
libRbt.so/2013.1/901 2013/11/27
 28 30  0  0  0  0  0  0  0  0999 V2000
   38.5162   13.8548   85.2439 C   0  0  0  0  0  0
   39.5227   13.0792   84.4885 C   0  0  0  0  0  0
   39.3540   11.8347   84.3821 O   0  0  0  0  0  0
   40.7224   13.6949   83.8709 C   0  0  0  0  0  0
   41.2262   13.1914   82.6657 C   0  0  0  0  0  0
   42.3869   13.7300   82.0638 C   0  0  0  0  0  0
   43.0035   14.8683   82.6658 C   0  0  0  0  0  0
   42.5169   15.3174   83.9128 C   0  0  0  0  0  0
   41.3986   14.7392   84.5052 C   0  0  0  0  0  0
   44.2256   15.5666   82.0500 C   0  0  0  0  0  0
   44.0363   17.1043   82.0502 C   0  0  0  0  0  0
   45.4779   15.2221   82.8884 C   0  0  0  0  0  0
   44.4401   15.1419   80.5761 C   0  0  0  0  0  0
   44.3064   13.6362   80.3845 C   0  0  0  0  0  0
   42.8903   13.1219   80.7451 C   0  0  0  0  0  0
   42.9886   11.5795   80.8539 C   0  0  0  0  0  0
   41.8956   13.4761   79.6159 C   0  0  0  0  0  0
   38.5218   15.1953   85.2941 C   0  0  0  0  0  0
   37.5222   15.9995   86.0395 C   0  0  0  0  0  0
   36.4442   15.4188   86.7347 C   0  0  0  0  0  0
   35.5233   16.2212   87.4154 C   0  0  0  0  0  0
   35.6556   17.6204   87.4149 C   0  0  0  0  0  0
   34.6843   18.4844   88.1295 C   0  0  0  0  0  0
   33.6667   17.9701   88.6655 O   0  0  0  0  0  0
   34.8540   19.8659   88.2155 O   0  0  0  0  0  0
   36.7158   18.1995   86.6974 C   0  0  0  0  0  0
   37.6363   17.3978   86.0173 C   0  0  0  0  0  0
   34.2278   20.4607   88.7425 H   0  0  0  0  0  0
  1  2  1  0  0  0
  2  3  2  0  0  0
  2  4  1  0  0  0
  4  5  2  0  0  0
  5  6  1  0  0  0
  6  7  2  0  0  0
  7  8  1  0  0  0
  8  9  2  0  0  0
  7 10  1  0  0  0
 10 11  1  0  0  0
 10 12  1  0  0  0
 10 13  1  0  0  0
 13 14  1  0  0  0
 14 15  1  0  0  0
 15 16  1  0  0  0
 15 17  1  0  0  0
  1 18  2  0  0  0
 18 19  1  0  0  0
 19 20  2  0  0  0
 20 21  1  0  0  0
 21 22  2  0  0  0
 22 23  1  0  0  0
 23 24  2  0  0  0
 23 25  1  0  0  0
 22 26  1  0  0  0
 26 27  2  0  0  0
  9  4  1  0  0  0
 27 19  1  0  0  0
 15  6  1  0  0  0
 25 28  1  0  0  0
M  END
>  <CHROM.0>
-159.10733787,-61.89308317,-63.85236220,69.22745773,66.63547778,63.54178710
-177.07291385,69.23529487

>  <CHROM.1>
-172.56303996,-145.87609868,-1.97431345,-5.27912980,-176.51726260,39.99168833
15.26699068,84.20746952,2.62437208,0.53206159,0.30566271

>  <Name>

>  <RI>
3.36268e+07

>  <Rbt.Current_Directory>
/extra/banzai2/j5wagner/CELPP/2016_10_17_rdock_implementation/normal_run/tutorialVideo/tutorial_rdock_implementation/full_week_run/4-docking/1fcz/LMCSS_1fcz_docking

>  <Rbt.Executable>
rbdock ($Id: //depot/dev/client3/rdock/2013.1/src/exe/rbdock.cxx#4 $)

>  <Rbt.Library>
libRbt.so (2013.1, Build901 2013/11/27)

>  <Rbt.Parameter_File>
/home/j5wagner/env_00/source/rDock/rDock_2013.1_src//data/scripts/dock.prm

>  <Rbt.Receptor>
/extra/banzai2/j5wagner/CELPP/2016_10_17_rdock_implementation/normal_run/tutorialVideo/tutorial_rdock_implementation/full_week_run/4-docking/1fcz/LMCSS_1fcz_tech_prep/rDockGridGenInput.prm

>  <SCORE>
-49.1698

>  <SCORE.INTER>
-27.1928

>  <SCORE.INTER.CONST>
1

>  <SCORE.INTER.POLAR>
-0.983449

>  <SCORE.INTER.REPUL>
0

>  <SCORE.INTER.ROT>
4

>  <SCORE.INTER.VDW>
-33.2491

>  <SCORE.INTER.norm>
-1.00714

>  <SCORE.INTRA>
-2.41175

>  <SCORE.INTRA.DIHEDRAL>
-5.9123

>  <SCORE.INTRA.DIHEDRAL.0>
10.7811

>  <SCORE.INTRA.POLAR>
0

>  <SCORE.INTRA.POLAR.0>
0

>  <SCORE.INTRA.REPUL>
0

>  <SCORE.INTRA.REPUL.0>
0

>  <SCORE.INTRA.VDW>
0.544404

>  <SCORE.INTRA.VDW.0>
-0.812999

>  <SCORE.INTRA.norm>
-0.0893239

>  <SCORE.RESTR>
0

>  <SCORE.RESTR.CAVITY>
0

>  <SCORE.RESTR.norm>
0

>  <SCORE.SYSTEM>
-19.5652

>  <SCORE.SYSTEM.CONST>
0

>  <SCORE.SYSTEM.DIHEDRAL>
1.68899

>  <SCORE.SYSTEM.POLAR>
-4.99544

>  <SCORE.SYSTEM.VDW>
-3.42524

>  <SCORE.SYSTEM.norm>
-0.724639

>  <SCORE.heavy>
27

>  <SCORE.norm>
-1.8211

$$$$

  rDOCK(R)          3D
libRbt.so/2013.1/901 2013/11/27
 28 30  0  0  0  0  0  0  0  0999 V2000
   39.3262   14.5334   85.0847 C   0  0  0  0  0  0
   40.3841   13.6445   84.5595 C   0  0  0  0  0  0
   40.2662   12.4046   84.7529 O   0  0  0  0  0  0
   41.5779   14.1463   83.8365 C   0  0  0  0  0  0
   42.0311   13.4849   82.6889 C   0  0  0  0  0  0
   43.1846   13.9134   81.9921 C   0  0  0  0  0  0
   43.8469   15.0996   82.4309 C   0  0  0  0  0  0
   43.4109   15.7118   83.6262 C   0  0  0  0  0  0
   42.2985   15.2417   84.3172 C   0  0  0  0  0  0
   45.0651   15.6831   81.6989 C   0  0  0  0  0  0
   44.9125   17.2138   81.5144 C   0  0  0  0  0  0
   46.3348   15.4099   82.5373 C   0  0  0  0  0  0
   45.2226   15.0747   80.2833 C   0  0  0  0  0  0
   45.0471   13.5612   80.2832 C   0  0  0  0  0  0
   43.6313   13.1343   80.7449 C   0  0  0  0  0  0
   43.6964   11.6148   81.0408 C   0  0  0  0  0  0
   42.6100   13.3743   79.6094 C   0  0  0  0  0  0
   38.5031   14.1716   86.0801 C   0  0  0  0  0  0
   37.4365   15.0441   86.6302 C   0  0  0  0  0  0
   36.5967   14.6445   87.6874 C   0  0  0  0  0  0
   35.5996   15.5008   88.1650 C   0  0  0  0  0  0
   35.4165   16.7731   87.5966 C   0  0  0  0  0  0
   34.3607   17.6906   88.0904 C   0  0  0  0  0  0
   34.3079   18.8729   87.6583 O   0  0  0  0  0  0
   33.4224   17.2878   89.0402 O   0  0  0  0  0  0
   36.2371   17.1591   86.5233 C   0  0  0  0  0  0
   37.2335   16.3036   86.0460 C   0  0  0  0  0  0
   33.3469   16.3313   89.3610 H   0  0  0  0  0  0
  1  2  1  0  0  0
  2  3  2  0  0  0
  2  4  1  0  0  0
  4  5  2  0  0  0
  5  6  1  0  0  0
  6  7  2  0  0  0
  7  8  1  0  0  0
  8  9  2  0  0  0
  7 10  1  0  0  0
 10 11  1  0  0  0
 10 12  1  0  0  0
 10 13  1  0  0  0
 13 14  1  0  0  0
 14 15  1  0  0  0
 15 16  1  0  0  0
 15 17  1  0  0  0
  1 18  2  0  0  0
 18 19  1  0  0  0
 19 20  2  0  0  0
 20 21  1  0  0  0
 21 22  2  0  0  0
 22 23  1  0  0  0
 23 24  2  0  0  0
 23 25  1  0  0  0
 22 26  1  0  0  0
 26 27  2  0  0  0
  9  4  1  0  0  0
 27 19  1  0  0  0
 15  6  1  0  0  0
 25 28  1  0  0  0
M  END
>  <CHROM.0>
-9.74833982,175.56539522,-65.78084308,174.27090953,59.24522256,-59.98169740
67.56469763,68.78830597

>  <CHROM.1>
21.52539634,-137.38944992,-179.20132718,172.69707435,-7.05406608,40.42490959
15.07645058,84.23885961,2.82382485,0.56914742,0.18918006

>  <Name>

>  <RI>
3.36268e+07

>  <Rbt.Current_Directory>
/extra/banzai2/j5wagner/CELPP/2016_10_17_rdock_implementation/normal_run/tutorialVideo/tutorial_rdock_implementation/full_week_run/4-docking/1fcz/LMCSS_1fcz_docking

>  <Rbt.Executable>
rbdock ($Id: //depot/dev/client3/rdock/2013.1/src/exe/rbdock.cxx#4 $)

>  <Rbt.Library>
libRbt.so (2013.1, Build901 2013/11/27)

>  <Rbt.Parameter_File>
/home/j5wagner/env_00/source/rDock/rDock_2013.1_src//data/scripts/dock.prm

>  <Rbt.Receptor>
/extra/banzai2/j5wagner/CELPP/2016_10_17_rdock_implementation/normal_run/tutorialVideo/tutorial_rdock_implementation/full_week_run/4-docking/1fcz/LMCSS_1fcz_tech_prep/rDockGridGenInput.prm

>  <SCORE>
-45.2432

>  <SCORE.INTER>
-29.7409

>  <SCORE.INTER.CONST>
1

>  <SCORE.INTER.POLAR>
-2.28513

>  <SCORE.INTER.REPUL>
0

>  <SCORE.INTER.ROT>
4

>  <SCORE.INTER.VDW>
-31.3715

>  <SCORE.INTER.norm>
-1.10152

>  <SCORE.INTRA>
-0.536197

>  <SCORE.INTRA.DIHEDRAL>
-2.35478

>  <SCORE.INTRA.DIHEDRAL.0>
10.7811

>  <SCORE.INTRA.POLAR>
0

>  <SCORE.INTRA.POLAR.0>
0

>  <SCORE.INTRA.REPUL>
0

>  <SCORE.INTRA.REPUL.0>
0

>  <SCORE.INTRA.VDW>
0.641191

>  <SCORE.INTRA.VDW.0>
-0.812999

>  <SCORE.INTRA.norm>
-0.0198591

>  <SCORE.RESTR>
0

>  <SCORE.RESTR.CAVITY>
0

>  <SCORE.RESTR.norm>
0

>  <SCORE.SYSTEM>
-14.966

>  <SCORE.SYSTEM.CONST>
0

>  <SCORE.SYSTEM.DIHEDRAL>
1.1809

>  <SCORE.SYSTEM.POLAR>
-4.20225

>  <SCORE.SYSTEM.REPUL>
0.202354

>  <SCORE.SYSTEM.VDW>
-2.28061

>  <SCORE.SYSTEM.norm>
-0.554298

>  <SCORE.heavy>
27

>  <SCORE.norm>
-1.67567

$$$$

  rDOCK(R)          3D
libRbt.so/2013.1/901 2013/11/27
 28 30  0  0  0  0  0  0  0  0999 V2000
   39.0162   13.9398   85.1253 C   0  0  0  0  0  0
   39.8762   13.0114   84.3613 C   0  0  0  0  0  0
   39.4417   11.8495   84.1378 O   0  0  0  0  0  0
   41.2249   13.3794   83.8660 C   0  0  0  0  0  0
   41.6875   14.6933   84.0047 C   0  0  0  0  0  0
   42.9535   15.0900   83.5153 C   0  0  0  0  0  0
   43.8058   14.0986   82.9418 C   0  0  0  0  0  0
   43.2935   12.7963   82.7543 C   0  0  0  0  0  0
   42.0253   12.4445   83.2059 C   0  0  0  0  0  0
   45.2246   14.4172   82.4459 C   0  0  0  0  0  0
   46.2312   13.3486   82.9408 C   0  0  0  0  0  0
   45.2283   14.4222   80.9000 C   0  0  0  0  0  0
   45.7209   15.7827   82.9824 C   0  0  0  0  0  0
   44.6607   16.8703   82.8601 C   0  0  0  0  0  0
   43.3940   16.5516   83.6930 C   0  0  0  0  0  0
   42.2860   17.5215   83.2110 C   0  0  0  0  0  0
   43.6660   16.8163   85.1917 C   0  0  0  0  0  0
   38.9614   15.2552   84.8682 C   0  0  0  0  0  0
   38.1045   16.2091   85.6147 C   0  0  0  0  0  0
   38.0237   17.5761   85.2870 C   0  0  0  0  0  0
   37.2073   18.4369   86.0273 C   0  0  0  0  0  0
   36.4562   17.9536   87.1124 C   0  0  0  0  0  0
   35.5888   18.8557   87.9090 C   0  0  0  0  0  0
   34.8826   18.3830   88.8392 O   0  0  0  0  0  0
   35.5164   20.2239   87.6494 O   0  0  0  0  0  0
   36.5598   16.5950   87.4554 C   0  0  0  0  0  0
   37.3753   15.7346   86.7156 C   0  0  0  0  0  0
   34.9381   20.8522   88.1919 H   0  0  0  0  0  0
  1  2  1  0  0  0
  2  3  2  0  0  0
  2  4  1  0  0  0
  4  5  2  0  0  0
  5  6  1  0  0  0
  6  7  2  0  0  0
  7  8  1  0  0  0
  8  9  2  0  0  0
  7 10  1  0  0  0
 10 11  1  0  0  0
 10 12  1  0  0  0
 10 13  1  0  0  0
 13 14  1  0  0  0
 14 15  1  0  0  0
 15 16  1  0  0  0
 15 17  1  0  0  0
  1 18  2  0  0  0
 18 19  1  0  0  0
 19 20  2  0  0  0
 20 21  1  0  0  0
 21 22  2  0  0  0
 22 23  1  0  0  0
 23 24  2  0  0  0
 23 25  1  0  0  0
 22 26  1  0  0  0
 26 27  2  0  0  0
  9  4  1  0  0  0
 27 19  1  0  0  0
 15  6  1  0  0  0
 25 28  1  0  0  0
M  END
>  <CHROM.0>
-159.20089949,-60.59262359,-64.68495859,68.33435988,-177.04712067,63.09579750
73.07940618,68.86672712

>  <CHROM.1>
-144.13950931,-6.03439009,-177.23561903,176.91229907,-179.22115064,40.67096538
15.68735083,84.67323020,2.67502334,0.41833139,0.21978866

>  <Name>

>  <RI>
3.36268e+07

>  <Rbt.Current_Directory>
/extra/banzai2/j5wagner/CELPP/2016_10_17_rdock_implementation/normal_run/tutorialVideo/tutorial_rdock_implementation/full_week_run/4-docking/1fcz/LMCSS_1fcz_docking

>  <Rbt.Executable>
rbdock ($Id: //depot/dev/client3/rdock/2013.1/src/exe/rbdock.cxx#4 $)

>  <Rbt.Library>
libRbt.so (2013.1, Build901 2013/11/27)

>  <Rbt.Parameter_File>
/home/j5wagner/env_00/source/rDock/rDock_2013.1_src//data/scripts/dock.prm

>  <Rbt.Receptor>
/extra/banzai2/j5wagner/CELPP/2016_10_17_rdock_implementation/normal_run/tutorialVideo/tutorial_rdock_implementation/full_week_run/4-docking/1fcz/LMCSS_1fcz_tech_prep/rDockGridGenInput.prm

>  <SCORE>
-40.2668

>  <SCORE.INTER>
-18.5945

>  <SCORE.INTER.CONST>
1

>  <SCORE.INTER.POLAR>
-0.87178

>  <SCORE.INTER.REPUL>
0

>  <SCORE.INTER.ROT>
4

>  <SCORE.INTER.VDW>
-25.0304

>  <SCORE.INTER.norm>
-0.688684

>  <SCORE.INTRA>
-2.13721

>  <SCORE.INTRA.DIHEDRAL>
-6.60087

>  <SCORE.INTRA.DIHEDRAL.0>
10.7811

>  <SCORE.INTRA.POLAR>
0

>  <SCORE.INTRA.POLAR.0>
0

>  <SCORE.INTRA.REPUL>
0

>  <SCORE.INTRA.REPUL.0>
0

>  <SCORE.INTRA.VDW>
1.16322

>  <SCORE.INTRA.VDW.0>
-0.812999

>  <SCORE.INTRA.norm>
-0.079156

>  <SCORE.RESTR>
0

>  <SCORE.RESTR.CAVITY>
0

>  <SCORE.RESTR.norm>
0

>  <SCORE.SYSTEM>
-19.5352

>  <SCORE.SYSTEM.CONST>
0

>  <SCORE.SYSTEM.DIHEDRAL>
2.28077

>  <SCORE.SYSTEM.POLAR>
-4.99563

>  <SCORE.SYSTEM.VDW>
-3.6904

>  <SCORE.SYSTEM.norm>
-0.723525

>  <SCORE.heavy>
27

>  <SCORE.norm>
-1.49136

$$$$

  rDOCK(R)          3D
libRbt.so/2013.1/901 2013/11/27
 28 30  0  0  0  0  0  0  0  0999 V2000
   38.5967   13.9338   85.2189 C   0  0  0  0  0  0
   39.5699   13.0993   84.4829 C   0  0  0  0  0  0
   39.3598   11.8581   84.4224 O   0  0  0  0  0  0
   40.7829   13.6531   83.8333 C   0  0  0  0  0  0
   41.2623   13.0864   82.6463 C   0  0  0  0  0  0
   42.4341   13.5651   82.0158 C   0  0  0  0  0  0
   43.0890   14.7075   82.5673 C   0  0  0  0  0  0
   42.6254   15.2211   83.7982 C   0  0  0  0  0  0
   41.4948   14.7013   84.4205 C   0  0  0  0  0  0
   44.3268   15.3432   81.9162 C   0  0  0  0  0  0
   44.1835   16.8847   81.8552 C   0  0  0  0  0  0
   45.5744   14.9951   82.7599 C   0  0  0  0  0  0
   44.5174   14.8531   80.4593 C   0  0  0  0  0  0
   44.3373   13.3457   80.3298 C   0  0  0  0  0  0
   42.9091   12.8894   80.7198 C   0  0  0  0  0  0
   42.9621   11.3504   80.8903 C   0  0  0  0  0  0
   41.9170   13.2277   79.5834 C   0  0  0  0  0  0
   38.6811   15.2715   85.2703 C   0  0  0  0  0  0
   37.7166   16.1341   85.9964 C   0  0  0  0  0  0
   37.8088   17.5391   86.0041 C   0  0  0  0  0  0
   36.8793   18.3080   86.7115 C   0  0  0  0  0  0
   35.8395   17.6922   87.4290 C   0  0  0  0  0  0
   34.8485   18.4947   88.1869 C   0  0  0  0  0  0
   33.8758   17.9212   88.7458 O   0  0  0  0  0  0
   34.9503   19.8817   88.2898 O   0  0  0  0  0  0
   35.7657   16.2891   87.4432 C   0  0  0  0  0  0
   36.6943   15.5206   86.7363 C   0  0  0  0  0  0
   34.2970   20.4385   88.8252 H   0  0  0  0  0  0
  1  2  1  0  0  0
  2  3  2  0  0  0
  2  4  1  0  0  0
  4  5  2  0  0  0
  5  6  1  0  0  0
  6  7  2  0  0  0
  7  8  1  0  0  0
  8  9  2  0  0  0
  7 10  1  0  0  0
 10 11  1  0  0  0
 10 12  1  0  0  0
 10 13  1  0  0  0
 13 14  1  0  0  0
 14 15  1  0  0  0
 15 16  1  0  0  0
 15 17  1  0  0  0
  1 18  2  0  0  0
 18 19  1  0  0  0
 19 20  2  0  0  0
 20 21  1  0  0  0
 21 22  2  0  0  0
 22 23  1  0  0  0
 23 24  2  0  0  0
 23 25  1  0  0  0
 22 26  1  0  0  0
 26 27  2  0  0  0
  9  4  1  0  0  0
 27 19  1  0  0  0
 15  6  1  0  0  0
 25 28  1  0  0  0
M  END
>  <CHROM.0>
12.16533701,56.77530322,-64.59861437,68.75985546,-175.40274055,-178.93763310
64.25332906,71.68348852

>  <CHROM.1>
-175.62633694,-146.22110235,-178.24607597,175.22010184,-178.19535006,40.09663732
15.19836633,84.17726582,2.59232563,0.53588810,0.31586312

>  <Name>

>  <RI>
3.36268e+07

>  <Rbt.Current_Directory>
/extra/banzai2/j5wagner/CELPP/2016_10_17_rdock_implementation/normal_run/tutorialVideo/tutorial_rdock_implementation/full_week_run/4-docking/1fcz/LMCSS_1fcz_docking

>  <Rbt.Executable>
rbdock ($Id: //depot/dev/client3/rdock/2013.1/src/exe/rbdock.cxx#4 $)

>  <Rbt.Library>
libRbt.so (2013.1, Build901 2013/11/27)

>  <Rbt.Parameter_File>
/home/j5wagner/env_00/source/rDock/rDock_2013.1_src//data/scripts/dock.prm

>  <Rbt.Receptor>
/extra/banzai2/j5wagner/CELPP/2016_10_17_rdock_implementation/normal_run/tutorialVideo/tutorial_rdock_implementation/full_week_run/4-docking/1fcz/LMCSS_1fcz_tech_prep/rDockGridGenInput.prm

>  <SCORE>
-47.0637

>  <SCORE.INTER>
-28.7415

>  <SCORE.INTER.CONST>
1

>  <SCORE.INTER.POLAR>
-1.37265

>  <SCORE.INTER.REPUL>
0

>  <SCORE.INTER.ROT>
4

>  <SCORE.INTER.VDW>
-33.4745

>  <SCORE.INTER.norm>
-1.0645

>  <SCORE.INTRA>
-2.16746

>  <SCORE.INTRA.DIHEDRAL>
-6.18677

>  <SCORE.INTRA.DIHEDRAL.0>
10.7811

>  <SCORE.INTRA.POLAR>
0

>  <SCORE.INTRA.POLAR.0>
0

>  <SCORE.INTRA.REPUL>
0

>  <SCORE.INTRA.REPUL.0>
0

>  <SCORE.INTRA.VDW>
0.925922

>  <SCORE.INTRA.VDW.0>
-0.812999

>  <SCORE.INTRA.norm>
-0.0802764

>  <SCORE.RESTR>
0

>  <SCORE.RESTR.CAVITY>
0

>  <SCORE.RESTR.norm>
0

>  <SCORE.SYSTEM>
-16.1547

>  <SCORE.SYSTEM.CONST>
0

>  <SCORE.SYSTEM.DIHEDRAL>
1.50859

>  <SCORE.SYSTEM.POLAR>
-4.39

>  <SCORE.SYSTEM.REPUL>
0.202354

>  <SCORE.SYSTEM.VDW>
-2.9948

>  <SCORE.SYSTEM.norm>
-0.598324

>  <SCORE.heavy>
27

>  <SCORE.norm>
-1.7431

$$$$

  rDOCK(R)          3D
libRbt.so/2013.1/901 2013/11/27
 28 30  0  0  0  0  0  0  0  0999 V2000
   38.5882   14.0128   85.2967 C   0  0  0  0  0  0
   39.6031   13.2115   84.5805 C   0  0  0  0  0  0
   39.4511   11.9610   84.5413 O   0  0  0  0  0  0
   40.7927   13.8094   83.9267 C   0  0  0  0  0  0
   41.2572   13.2934   82.7111 C   0  0  0  0  0  0
   42.4073   13.8147   82.0746 C   0  0  0  0  0  0
   43.0536   14.9487   82.6530 C   0  0  0  0  0  0
   42.6068   15.4104   83.9103 C   0  0  0  0  0  0
   41.4984   14.8489   84.5364 C   0  0  0  0  0  0
   44.2666   15.6289   82.0001 C   0  0  0  0  0  0
   44.0957   17.1687   81.9967 C   0  0  0  0  0  0
   45.5372   15.2739   82.8058 C   0  0  0  0  0  0
   44.4356   15.1937   80.5233 C   0  0  0  0  0  0
   44.2788   13.6887   80.3440 C   0  0  0  0  0  0
   42.8670   13.1936   80.7462 C   0  0  0  0  0  0
   42.9500   11.6507   80.8610 C   0  0  0  0  0  0
   41.8460   13.5536   79.6426 C   0  0  0  0  0  0
   38.5988   15.3541   85.3079 C   0  0  0  0  0  0
   37.5911   16.1837   86.0134 C   0  0  0  0  0  0
   37.5984   17.5910   85.9688 C   0  0  0  0  0  0
   36.6310   18.3285   86.6586 C   0  0  0  0  0  0
   35.6372   17.6785   87.4103 C   0  0  0  0  0  0
   34.6069   18.4478   88.1500 C   0  0  0  0  0  0
   33.6931   17.8370   88.7659 O   0  0  0  0  0  0
   34.6071   19.8421   88.1740 O   0  0  0  0  0  0
   35.6482   16.2751   87.4764 C   0  0  0  0  0  0
   36.6147   15.5379   86.7870 C   0  0  0  0  0  0
   35.3172   20.3956   87.7126 H   0  0  0  0  0  0
  1  2  1  0  0  0
  2  3  2  0  0  0
  2  4  1  0  0  0
  4  5  2  0  0  0
  5  6  1  0  0  0
  6  7  2  0  0  0
  7  8  1  0  0  0
  8  9  2  0  0  0
  7 10  1  0  0  0
 10 11  1  0  0  0
 10 12  1  0  0  0
 10 13  1  0  0  0
 13 14  1  0  0  0
 14 15  1  0  0  0
 15 16  1  0  0  0
 15 17  1  0  0  0
  1 18  2  0  0  0
 18 19  1  0  0  0
 19 20  2  0  0  0
 20 21  1  0  0  0
 21 22  2  0  0  0
 22 23  1  0  0  0
 23 24  2  0  0  0
 23 25  1  0  0  0
 22 26  1  0  0  0
 26 27  2  0  0  0
  9  4  1  0  0  0
 27 19  1  0  0  0
 15  6  1  0  0  0
 25 28  1  0  0  0
M  END
>  <CHROM.0>
-158.35782927,-65.14330991,-65.84430950,68.02170960,-57.37956897,-57.54380553
-176.23534600,71.07055222

>  <CHROM.1>
-174.60008385,-142.46390498,-177.65655501,176.81562747,-1.63193693,40.01578801
15.34550171,84.21523168,2.64579565,0.54611372,0.27753399

>  <Name>

>  <RI>
3.36268e+07

>  <Rbt.Current_Directory>
/extra/banzai2/j5wagner/CELPP/2016_10_17_rdock_implementation/normal_run/tutorialVideo/tutorial_rdock_implementation/full_week_run/4-docking/1fcz/LMCSS_1fcz_docking

>  <Rbt.Executable>
rbdock ($Id: //depot/dev/client3/rdock/2013.1/src/exe/rbdock.cxx#4 $)

>  <Rbt.Library>
libRbt.so (2013.1, Build901 2013/11/27)

>  <Rbt.Parameter_File>
/home/j5wagner/env_00/source/rDock/rDock_2013.1_src//data/scripts/dock.prm

>  <Rbt.Receptor>
/extra/banzai2/j5wagner/CELPP/2016_10_17_rdock_implementation/normal_run/tutorialVideo/tutorial_rdock_implementation/full_week_run/4-docking/1fcz/LMCSS_1fcz_tech_prep/rDockGridGenInput.prm

>  <SCORE>
-53.1312

>  <SCORE.INTER>
-31.5518

>  <SCORE.INTER.CONST>
1

>  <SCORE.INTER.POLAR>
-1.86396

>  <SCORE.INTER.REPUL>
0

>  <SCORE.INTER.ROT>
4

>  <SCORE.INTER.VDW>
-34.6143

>  <SCORE.INTER.norm>
-1.16858

>  <SCORE.INTRA>
-1.96632

>  <SCORE.INTRA.DIHEDRAL>
-5.40186

>  <SCORE.INTRA.DIHEDRAL.0>
10.7811

>  <SCORE.INTRA.POLAR>
0

>  <SCORE.INTRA.POLAR.0>
0

>  <SCORE.INTRA.REPUL>
0

>  <SCORE.INTRA.REPUL.0>
0

>  <SCORE.INTRA.VDW>
0.734607

>  <SCORE.INTRA.VDW.0>
-0.812999

>  <SCORE.INTRA.norm>
-0.0728267

>  <SCORE.RESTR>
0

>  <SCORE.RESTR.CAVITY>
0

>  <SCORE.RESTR.norm>
0

>  <SCORE.SYSTEM>
-19.6131

>  <SCORE.SYSTEM.CONST>
0

>  <SCORE.SYSTEM.DIHEDRAL>
1.8784

>  <SCORE.SYSTEM.POLAR>
-5.0065

>  <SCORE.SYSTEM.VDW>
-3.5302

>  <SCORE.SYSTEM.norm>
-0.726411

>  <SCORE.heavy>
27

>  <SCORE.norm>
-1.96782

$$$$

  rDOCK(R)          3D
libRbt.so/2013.1/901 2013/11/27
 28 30  0  0  0  0  0  0  0  0999 V2000
   38.5930   13.8844   85.2692 C   0  0  0  0  0  0
   39.6212   13.1311   84.5205 C   0  0  0  0  0  0
   39.4894   11.8811   84.4274 O   0  0  0  0  0  0
   40.8013   13.7756   83.8946 C   0  0  0  0  0  0
   41.3035   13.2899   82.6815 C   0  0  0  0  0  0
   42.4464   13.8565   82.0713 C   0  0  0  0  0  0
   43.0448   15.0041   82.6739 C   0  0  0  0  0  0
   42.5614   15.4357   83.9284 C   0  0  0  0  0  0
   41.4616   14.8305   84.5285 C   0  0  0  0  0  0
   44.2456   15.7317   82.0503 C   0  0  0  0  0  0
   44.0238   17.2650   82.0615 C   0  0  0  0  0  0
   45.5133   15.4091   82.8740 C   0  0  0  0  0  0
   44.4542   15.3201   80.5718 C   0  0  0  0  0  0
   44.3505   13.8131   80.3725 C   0  0  0  0  0  0
   42.9492   13.2668   80.7441 C   0  0  0  0  0  0
   43.0813   11.7262   80.8427 C   0  0  0  0  0  0
   41.9359   13.6064   79.6270 C   0  0  0  0  0  0
   38.5591   15.2248   85.3059 C   0  0  0  0  0  0
   37.5370   16.0068   86.0443 C   0  0  0  0  0  0
   36.4997   15.4008   86.7787 C   0  0  0  0  0  0
   35.5549   16.1824   87.4510 C   0  0  0  0  0  0
   35.6224   17.5854   87.4029 C   0  0  0  0  0  0
   34.6251   18.4273   88.1080 C   0  0  0  0  0  0
   33.7007   17.8813   88.7673 O   0  0  0  0  0  0
   34.6680   19.8200   88.0520 O   0  0  0  0  0  0
   36.6416   18.1883   86.6465 C   0  0  0  0  0  0
   37.5858   17.4074   85.9748 C   0  0  0  0  0  0
   35.3922   20.3240   87.5570 H   0  0  0  0  0  0
  1  2  1  0  0  0
  2  3  2  0  0  0
  2  4  1  0  0  0
  4  5  2  0  0  0
  5  6  1  0  0  0
  6  7  2  0  0  0
  7  8  1  0  0  0
  8  9  2  0  0  0
  7 10  1  0  0  0
 10 11  1  0  0  0
 10 12  1  0  0  0
 10 13  1  0  0  0
 13 14  1  0  0  0
 14 15  1  0  0  0
 15 16  1  0  0  0
 15 17  1  0  0  0
  1 18  2  0  0  0
 18 19  1  0  0  0
 19 20  2  0  0  0
 20 21  1  0  0  0
 21 22  2  0  0  0
 22 23  1  0  0  0
 23 24  2  0  0  0
 23 25  1  0  0  0
 22 26  1  0  0  0
 26 27  2  0  0  0
  9  4  1  0  0  0
 27 19  1  0  0  0
 15  6  1  0  0  0
 25 28  1  0  0  0
M  END
>  <CHROM.0>
-160.34481973,58.39017063,-65.99630507,64.82472038,-176.71009659,-58.62286987
-178.12734838,72.78457886

>  <CHROM.1>
-172.59851957,-144.70628301,-0.07512062,0.23022609,-2.01677669,40.02155730
15.33401460,84.20687276,2.66249544,0.54709701,0.27068237

>  <Name>

>  <RI>
3.36268e+07

>  <Rbt.Current_Directory>
/extra/banzai2/j5wagner/CELPP/2016_10_17_rdock_implementation/normal_run/tutorialVideo/tutorial_rdock_implementation/full_week_run/4-docking/1fcz/LMCSS_1fcz_docking

>  <Rbt.Executable>
rbdock ($Id: //depot/dev/client3/rdock/2013.1/src/exe/rbdock.cxx#4 $)

>  <Rbt.Library>
libRbt.so (2013.1, Build901 2013/11/27)

>  <Rbt.Parameter_File>
/home/j5wagner/env_00/source/rDock/rDock_2013.1_src//data/scripts/dock.prm

>  <Rbt.Receptor>
/extra/banzai2/j5wagner/CELPP/2016_10_17_rdock_implementation/normal_run/tutorialVideo/tutorial_rdock_implementation/full_week_run/4-docking/1fcz/LMCSS_1fcz_tech_prep/rDockGridGenInput.prm

>  <SCORE>
-53.4064

>  <SCORE.INTER>
-31.5369

>  <SCORE.INTER.CONST>
1

>  <SCORE.INTER.POLAR>
-1.89861

>  <SCORE.INTER.REPUL>
0

>  <SCORE.INTER.ROT>
4

>  <SCORE.INTER.VDW>
-34.4816

>  <SCORE.INTER.norm>
-1.16803

>  <SCORE.INTRA>
-2.43892

>  <SCORE.INTRA.DIHEDRAL>
-5.87269

>  <SCORE.INTRA.DIHEDRAL.0>
10.7811

>  <SCORE.INTRA.POLAR>
0

>  <SCORE.INTRA.POLAR.0>
0

>  <SCORE.INTRA.REPUL>
0

>  <SCORE.INTRA.REPUL.0>
0

>  <SCORE.INTRA.VDW>
0.497425

>  <SCORE.INTRA.VDW.0>
-0.812999

>  <SCORE.INTRA.norm>
-0.0903304

>  <SCORE.RESTR>
0

>  <SCORE.RESTR.CAVITY>
0

>  <SCORE.RESTR.norm>
0

>  <SCORE.SYSTEM>
-19.4306

>  <SCORE.SYSTEM.CONST>
0

>  <SCORE.SYSTEM.DIHEDRAL>
1.65779

>  <SCORE.SYSTEM.POLAR>
-4.92199

>  <SCORE.SYSTEM.VDW>
-3.52472

>  <SCORE.SYSTEM.norm>
-0.719652

>  <SCORE.heavy>
27

>  <SCORE.norm>
-1.97802

$$$$

  rDOCK(R)          3D
libRbt.so/2013.1/901 2013/11/27
 28 30  0  0  0  0  0  0  0  0999 V2000
   39.0584   13.5310   85.1099 C   0  0  0  0  0  0
   40.1030   12.8245   84.3386 C   0  0  0  0  0  0
   39.9922   11.5772   84.1954 O   0  0  0  0  0  0
   41.2761   13.5122   83.7462 C   0  0  0  0  0  0
   41.8165   13.0591   82.5369 C   0  0  0  0  0  0
   42.9544   13.6676   81.9583 C   0  0  0  0  0  0
   43.5067   14.8231   82.5892 C   0  0  0  0  0  0
   42.9858   15.2219   83.8395 C   0  0  0  0  0  0
   41.8923   14.5762   84.4083 C   0  0  0  0  0  0
   44.6979   15.5943   82.0006 C   0  0  0  0  0  0
   44.4310   17.1202   82.0290 C   0  0  0  0  0  0
   45.9577   15.2964   82.8455 C   0  0  0  0  0  0
   44.9481   15.2108   80.5210 C   0  0  0  0  0  0
   44.8926   13.7044   80.2984 C   0  0  0  0  0  0
   43.5008   13.1124   80.6335 C   0  0  0  0  0  0
   43.6759   11.5750   80.7130 C   0  0  0  0  0  0
   42.5006   13.4388   79.5007 C   0  0  0  0  0  0
   38.9592   14.8683   85.1405 C   0  0  0  0  0  0
   37.9190   15.6037   85.9012 C   0  0  0  0  0  0
   37.1394   14.9975   86.9049 C   0  0  0  0  0  0
   36.1647   15.7319   87.5877 C   0  0  0  0  0  0
   35.9443   17.0859   87.2822 C   0  0  0  0  0  0
   34.9115   17.8763   87.9957 C   0  0  0  0  0  0
   34.4949   18.9555   87.4965 O   0  0  0  0  0  0
   34.3909   17.4675   89.2231 O   0  0  0  0  0  0
   36.7038   17.6815   86.2611 C   0  0  0  0  0  0
   37.6779   16.9479   85.5788 C   0  0  0  0  0  0
   33.6908   17.9997   89.7232 H   0  0  0  0  0  0
  1  2  1  0  0  0
  2  3  2  0  0  0
  2  4  1  0  0  0
  4  5  2  0  0  0
  5  6  1  0  0  0
  6  7  2  0  0  0
  7  8  1  0  0  0
  8  9  2  0  0  0
  7 10  1  0  0  0
 10 11  1  0  0  0
 10 12  1  0  0  0
 10 13  1  0  0  0
 13 14  1  0  0  0
 14 15  1  0  0  0
 15 16  1  0  0  0
 15 17  1  0  0  0
  1 18  2  0  0  0
 18 19  1  0  0  0
 19 20  2  0  0  0
 20 21  1  0  0  0
 21 22  2  0  0  0
 22 23  1  0  0  0
 23 24  2  0  0  0
 23 25  1  0  0  0
 22 26  1  0  0  0
 26 27  2  0  0  0
  9  4  1  0  0  0
 27 19  1  0  0  0
 15  6  1  0  0  0
 25 28  1  0  0  0
M  END
>  <CHROM.0>
-159.13343777,179.06259113,-64.49238924,67.05858426,-174.07272564,-178.73774791
-176.87183125,68.73437621

>  <CHROM.1>
-168.89517943,-146.51923980,15.44240989,-161.96819801,179.59695690,40.44589577
15.02039991,84.10201331,2.71703138,0.55716913,0.24706124

>  <Name>

>  <RI>
3.36268e+07

>  <Rbt.Current_Directory>
/extra/banzai2/j5wagner/CELPP/2016_10_17_rdock_implementation/normal_run/tutorialVideo/tutorial_rdock_implementation/full_week_run/4-docking/1fcz/LMCSS_1fcz_docking

>  <Rbt.Executable>
rbdock ($Id: //depot/dev/client3/rdock/2013.1/src/exe/rbdock.cxx#4 $)

>  <Rbt.Library>
libRbt.so (2013.1, Build901 2013/11/27)

>  <Rbt.Parameter_File>
/home/j5wagner/env_00/source/rDock/rDock_2013.1_src//data/scripts/dock.prm

>  <Rbt.Receptor>
/extra/banzai2/j5wagner/CELPP/2016_10_17_rdock_implementation/normal_run/tutorialVideo/tutorial_rdock_implementation/full_week_run/4-docking/1fcz/LMCSS_1fcz_tech_prep/rDockGridGenInput.prm

>  <SCORE>
-51.2732

>  <SCORE.INTER>
-30.3198

>  <SCORE.INTER.CONST>
1

>  <SCORE.INTER.POLAR>
-1.77132

>  <SCORE.INTER.REPUL>
0

>  <SCORE.INTER.ROT>
4

>  <SCORE.INTER.VDW>
-33.6973

>  <SCORE.INTER.norm>
-1.12296

>  <SCORE.INTRA>
-1.49898

>  <SCORE.INTRA.DIHEDRAL>
-3.8321

>  <SCORE.INTRA.DIHEDRAL.0>
10.7811

>  <SCORE.INTRA.POLAR>
0

>  <SCORE.INTRA.POLAR.0>
0

>  <SCORE.INTRA.REPUL>
0

>  <SCORE.INTRA.REPUL.0>
0

>  <SCORE.INTRA.VDW>
0.417065

>  <SCORE.INTRA.VDW.0>
-0.812999

>  <SCORE.INTRA.norm>
-0.0555179

>  <SCORE.RESTR>
0

>  <SCORE.RESTR.CAVITY>
0

>  <SCORE.RESTR.norm>
0

>  <SCORE.SYSTEM>
-19.4544

>  <SCORE.SYSTEM.CONST>
0

>  <SCORE.SYSTEM.DIHEDRAL>
1.4532

>  <SCORE.SYSTEM.POLAR>
-4.93614

>  <SCORE.SYSTEM.VDW>
-3.39812

>  <SCORE.SYSTEM.norm>
-0.720534

>  <SCORE.heavy>
27

>  <SCORE.norm>
-1.89901

$$$$

  rDOCK(R)          3D
libRbt.so/2013.1/901 2013/11/27
 28 30  0  0  0  0  0  0  0  0999 V2000
   39.2164   14.9388   84.8897 C   0  0  0  0  0  0
   40.0398   13.9088   84.2215 C   0  0  0  0  0  0
   39.6086   12.7246   84.2049 O   0  0  0  0  0  0
   41.3495   14.2032   83.5909 C   0  0  0  0  0  0
   41.7891   13.4422   82.5013 C   0  0  0  0  0  0
   43.0460   13.6709   81.8950 C   0  0  0  0  0  0
   43.8413   14.7611   82.3611 C   0  0  0  0  0  0
   43.4075   15.4726   83.5009 C   0  0  0  0  0  0
   42.1853   15.1965   84.1058 C   0  0  0  0  0  0
   45.1881   15.1322   81.7217 C   0  0  0  0  0  0
   45.2821   16.6612   81.4900 C   0  0  0  0  0  0
   46.3309   14.7043   82.6706 C   0  0  0  0  0  0
   45.3657   14.4578   80.3388 C   0  0  0  0  0  0
   44.9657   12.9876   80.3585 C   0  0  0  0  0  0
   43.4694   12.7909   80.7083 C   0  0  0  0  0  0
   43.2819   11.2899   81.0432 C   0  0  0  0  0  0
   42.5902   13.1389   79.4852 C   0  0  0  0  0  0
   38.1208   14.6405   85.6038 C   0  0  0  0  0  0
   37.2789   15.6521   86.2889 C   0  0  0  0  0  0
   37.4786   17.0375   86.1362 C   0  0  0  0  0  0
   36.6629   17.9513   86.8107 C   0  0  0  0  0  0
   35.6322   17.5032   87.6546 C   0  0  0  0  0  0
   34.7615   18.4608   88.3794 C   0  0  0  0  0  0
   33.6900   18.0570   88.9050 O   0  0  0  0  0  0
   35.0856   19.8129   88.4866 O   0  0  0  0  0  0
   35.4524   16.1205   87.8276 C   0  0  0  0  0  0
   36.2673   15.2072   87.1535 C   0  0  0  0  0  0
   34.5099   20.4735   88.9921 H   0  0  0  0  0  0
  1  2  1  0  0  0
  2  3  2  0  0  0
  2  4  1  0  0  0
  4  5  2  0  0  0
  5  6  1  0  0  0
  6  7  2  0  0  0
  7  8  1  0  0  0
  8  9  2  0  0  0
  7 10  1  0  0  0
 10 11  1  0  0  0
 10 12  1  0  0  0
 10 13  1  0  0  0
 13 14  1  0  0  0
 14 15  1  0  0  0
 15 16  1  0  0  0
 15 17  1  0  0  0
  1 18  2  0  0  0
 18 19  1  0  0  0
 19 20  2  0  0  0
 20 21  1  0  0  0
 21 22  2  0  0  0
 22 23  1  0  0  0
 23 24  2  0  0  0
 23 25  1  0  0  0
 22 26  1  0  0  0
 26 27  2  0  0  0
  9  4  1  0  0  0
 27 19  1  0  0  0
 15  6  1  0  0  0
 25 28  1  0  0  0
M  END
>  <CHROM.0>
-161.40265568,-60.25282637,-64.49673618,68.34466516,-57.56721429,-58.78408861
-178.73738905,66.64954697

>  <CHROM.1>
7.91188599,-150.65646457,6.72221280,165.59873275,-178.84800577,40.41138750
15.20459890,84.16296466,2.59456335,0.46161098,0.42671785

>  <Name>

>  <RI>
3.36268e+07

>  <Rbt.Current_Directory>
/extra/banzai2/j5wagner/CELPP/2016_10_17_rdock_implementation/normal_run/tutorialVideo/tutorial_rdock_implementation/full_week_run/4-docking/1fcz/LMCSS_1fcz_docking

>  <Rbt.Executable>
rbdock ($Id: //depot/dev/client3/rdock/2013.1/src/exe/rbdock.cxx#4 $)

>  <Rbt.Library>
libRbt.so (2013.1, Build901 2013/11/27)

>  <Rbt.Parameter_File>
/home/j5wagner/env_00/source/rDock/rDock_2013.1_src//data/scripts/dock.prm

>  <Rbt.Receptor>
/extra/banzai2/j5wagner/CELPP/2016_10_17_rdock_implementation/normal_run/tutorialVideo/tutorial_rdock_implementation/full_week_run/4-docking/1fcz/LMCSS_1fcz_tech_prep/rDockGridGenInput.prm

>  <SCORE>
-47.3291

>  <SCORE.INTER>
-25.3008

>  <SCORE.INTER.CONST>
1

>  <SCORE.INTER.POLAR>
-1.01641

>  <SCORE.INTER.REPUL>
0

>  <SCORE.INTER.ROT>
4

>  <SCORE.INTER.VDW>
-31.245

>  <SCORE.INTER.norm>
-0.937065

>  <SCORE.INTRA>
-2.41732

>  <SCORE.INTRA.DIHEDRAL>
-6.03028

>  <SCORE.INTRA.DIHEDRAL.0>
10.7811

>  <SCORE.INTRA.POLAR>
0

>  <SCORE.INTRA.POLAR.0>
0

>  <SCORE.INTRA.REPUL>
0

>  <SCORE.INTRA.REPUL.0>
0

>  <SCORE.INTRA.VDW>
0.597817

>  <SCORE.INTRA.VDW.0>
-0.812999

>  <SCORE.INTRA.norm>
-0.0895304

>  <SCORE.RESTR>
0

>  <SCORE.RESTR.CAVITY>
0

>  <SCORE.RESTR.norm>
0

>  <SCORE.SYSTEM>
-19.611

>  <SCORE.SYSTEM.CONST>
0

>  <SCORE.SYSTEM.DIHEDRAL>
1.16128

>  <SCORE.SYSTEM.POLAR>
-4.97487

>  <SCORE.SYSTEM.VDW>
-3.27708

>  <SCORE.SYSTEM.norm>
-0.726333

>  <SCORE.heavy>
27

>  <SCORE.norm>
-1.75293

$$$$

  rDOCK(R)          3D
libRbt.so/2013.1/901 2013/11/27
 28 30  0  0  0  0  0  0  0  0999 V2000
   41.0961   16.3143   85.7430 C   0  0  0  0  0  0
   42.3605   16.1537   84.9941 C   0  0  0  0  0  0
   43.3477   16.8565   85.3408 O   0  0  0  0  0  0
   42.5108   15.2220   83.8499 C   0  0  0  0  0  0
   43.7507   15.0883   83.2139 C   0  0  0  0  0  0
   43.9250   14.2357   82.0993 C   0  0  0  0  0  0
   42.8230   13.4343   81.6730 C   0  0  0  0  0  0
   41.5674   13.6336   82.2873 C   0  0  0  0  0  0
   41.4142   14.5134   83.3543 C   0  0  0  0  0  0
   42.9332   12.4278   80.5175 C   0  0  0  0  0  0
   42.2844   11.0753   80.9048 C   0  0  0  0  0  0
   42.1952   12.9953   79.2833 C   0  0  0  0  0  0
   44.4110   12.1303   80.1620 C   0  0  0  0  0  0
   45.2527   13.3982   80.0871 C   0  0  0  0  0  0
   45.3118   14.1446   81.4434 C   0  0  0  0  0  0
   45.8754   15.5581   81.1520 C   0  0  0  0  0  0
   46.2768   13.4157   82.4065 C   0  0  0  0  0  0
   40.0707   15.4572   85.6270 C   0  0  0  0  0  0
   38.7930   15.5904   86.3693 C   0  0  0  0  0  0
   38.3619   16.8083   86.9292 C   0  0  0  0  0  0
   37.1526   16.8803   87.6278 C   0  0  0  0  0  0
   36.3485   15.7385   87.7857 C   0  0  0  0  0  0
   35.0652   15.7991   88.5273 C   0  0  0  0  0  0
   34.4148   14.7408   88.7384 O   0  0  0  0  0  0
   34.5405   17.0050   88.9909 O   0  0  0  0  0  0
   36.7937   14.5181   87.2505 C   0  0  0  0  0  0
   38.0020   14.4460   86.5523 C   0  0  0  0  0  0
   33.6918   17.0557   89.5394 H   0  0  0  0  0  0
  1  2  1  0  0  0
  2  3  2  0  0  0
  2  4  1  0  0  0
  4  5  2  0  0  0
  5  6  1  0  0  0
  6  7  2  0  0  0
  7  8  1  0  0  0
  8  9  2  0  0  0
  7 10  1  0  0  0
 10 11  1  0  0  0
 10 12  1  0  0  0
 10 13  1  0  0  0
 13 14  1  0  0  0
 14 15  1  0  0  0
 15 16  1  0  0  0
 15 17  1  0  0  0
  1 18  2  0  0  0
 18 19  1  0  0  0
 19 20  2  0  0  0
 20 21  1  0  0  0
 21 22  2  0  0  0
 22 23  1  0  0  0
 23 24  2  0  0  0
 23 25  1  0  0  0
 22 26  1  0  0  0
 26 27  2  0  0  0
  9  4  1  0  0  0
 27 19  1  0  0  0
 15  6  1  0  0  0
 25 28  1  0  0  0
M  END
>  <CHROM.0>
-158.98521322,-61.24293402,-64.51043017,178.50739168,64.92841883,176.19439707
74.69162811,70.86438195

>  <CHROM.1>
-167.38165616,-177.89040334,20.48987344,-174.72656327,-176.71468184,40.97594711
14.72401624,84.18960586,-2.49591906,-0.36157540,-2.34142659

>  <Name>

>  <RI>
3.36268e+07

>  <Rbt.Current_Directory>
/extra/banzai2/j5wagner/CELPP/2016_10_17_rdock_implementation/normal_run/tutorialVideo/tutorial_rdock_implementation/full_week_run/4-docking/1fcz/LMCSS_1fcz_docking

>  <Rbt.Executable>
rbdock ($Id: //depot/dev/client3/rdock/2013.1/src/exe/rbdock.cxx#4 $)

>  <Rbt.Library>
libRbt.so (2013.1, Build901 2013/11/27)

>  <Rbt.Parameter_File>
/home/j5wagner/env_00/source/rDock/rDock_2013.1_src//data/scripts/dock.prm

>  <Rbt.Receptor>
/extra/banzai2/j5wagner/CELPP/2016_10_17_rdock_implementation/normal_run/tutorialVideo/tutorial_rdock_implementation/full_week_run/4-docking/1fcz/LMCSS_1fcz_tech_prep/rDockGridGenInput.prm

>  <SCORE>
-34.7759

>  <SCORE.INTER>
-14.3854

>  <SCORE.INTER.CONST>
1

>  <SCORE.INTER.POLAR>
-0.111146

>  <SCORE.INTER.REPUL>
0.22153

>  <SCORE.INTER.ROT>
4

>  <SCORE.INTER.VDW>
-24.5152

>  <SCORE.INTER.norm>
-0.532793

>  <SCORE.INTRA>
-2.37956

>  <SCORE.INTRA.DIHEDRAL>
-8.22646

>  <SCORE.INTRA.DIHEDRAL.0>
10.7811

>  <SCORE.INTRA.POLAR>
0

>  <SCORE.INTRA.POLAR.0>
0

>  <SCORE.INTRA.REPUL>
0

>  <SCORE.INTRA.REPUL.0>
0

>  <SCORE.INTRA.VDW>
1.73367

>  <SCORE.INTRA.VDW.0>
-0.812999

>  <SCORE.INTRA.norm>
-0.0881318

>  <SCORE.RESTR>
0

>  <SCORE.RESTR.CAVITY>
0

>  <SCORE.RESTR.norm>
0

>  <SCORE.SYSTEM>
-18.011

>  <SCORE.SYSTEM.CONST>
0

>  <SCORE.SYSTEM.DIHEDRAL>
2.39998

>  <SCORE.SYSTEM.POLAR>
-4.79932

>  <SCORE.SYSTEM.VDW>
-2.89326

>  <SCORE.SYSTEM.norm>
-0.667073

>  <SCORE.heavy>
27

>  <SCORE.norm>
-1.288

$$$$

  rDOCK(R)          3D
libRbt.so/2013.1/901 2013/11/27
 28 30  0  0  0  0  0  0  0  0999 V2000
   39.2496   14.7126   84.8244 C   0  0  0  0  0  0
   40.1709   13.7328   84.2108 C   0  0  0  0  0  0
   39.8614   12.5123   84.2678 O   0  0  0  0  0  0
   41.4425   14.1194   83.5525 C   0  0  0  0  0  0
   41.9129   13.3894   82.4545 C   0  0  0  0  0  0
   43.1370   13.7068   81.8217 C   0  0  0  0  0  0
   43.8611   14.8528   82.2699 C   0  0  0  0  0  0
   43.4010   15.5339   83.4180 C   0  0  0  0  0  0
   42.2149   15.1717   84.0488 C   0  0  0  0  0  0
   45.1638   15.3186   81.6020 C   0  0  0  0  0  0
   45.1423   16.8498   81.3669 C   0  0  0  0  0  0
   46.3542   14.9767   82.5270 C   0  0  0  0  0  0
   45.3607   14.6554   80.2163 C   0  0  0  0  0  0
   45.0685   13.1603   80.2457 C   0  0  0  0  0  0
   43.5980   12.8569   80.6271 C   0  0  0  0  0  0
   43.5264   11.3470   80.9673 C   0  0  0  0  0  0
   42.6705   13.1375   79.4225 C   0  0  0  0  0  0
   38.3738   14.3816   85.7850 C   0  0  0  0  0  0
   37.4414   15.3441   86.4219 C   0  0  0  0  0  0
   37.2364   16.6461   85.9264 C   0  0  0  0  0  0
   36.3526   17.5193   86.5681 C   0  0  0  0  0  0
   35.6563   17.1140   87.7197 C   0  0  0  0  0  0
   34.7184   18.0307   88.4130 C   0  0  0  0  0  0
   34.0999   18.9081   87.7535 O   0  0  0  0  0  0
   34.5075   17.9629   89.7898 O   0  0  0  0  0  0
   35.8833   15.8243   88.2288 C   0  0  0  0  0  0
   36.7663   14.9515   87.5876 C   0  0  0  0  0  0
   35.0240   17.3337   90.3905 H   0  0  0  0  0  0
  1  2  1  0  0  0
  2  3  2  0  0  0
  2  4  1  0  0  0
  4  5  2  0  0  0
  5  6  1  0  0  0
  6  7  2  0  0  0
  7  8  1  0  0  0
  8  9  2  0  0  0
  7 10  1  0  0  0
 10 11  1  0  0  0
 10 12  1  0  0  0
 10 13  1  0  0  0
 13 14  1  0  0  0
 14 15  1  0  0  0
 15 16  1  0  0  0
 15 17  1  0  0  0
  1 18  2  0  0  0
 18 19  1  0  0  0
 19 20  2  0  0  0
 20 21  1  0  0  0
 21 22  2  0  0  0
 22 23  1  0  0  0
 23 24  2  0  0  0
 23 25  1  0  0  0
 22 26  1  0  0  0
 26 27  2  0  0  0
  9  4  1  0  0  0
 27 19  1  0  0  0
 15  6  1  0  0  0
 25 28  1  0  0  0
M  END
>  <CHROM.0>
-160.02181082,-62.82587345,-66.80019384,67.82627609,-178.73461724,61.70245803
-179.86800776,67.50404106

>  <CHROM.1>
22.57339563,-146.86228445,10.69212906,29.95544310,4.21886771,40.47739985
15.07738285,84.15556191,2.66360507,0.52765017,0.36622427

>  <Name>

>  <RI>
3.36268e+07

>  <Rbt.Current_Directory>
/extra/banzai2/j5wagner/CELPP/2016_10_17_rdock_implementation/normal_run/tutorialVideo/tutorial_rdock_implementation/full_week_run/4-docking/1fcz/LMCSS_1fcz_docking

>  <Rbt.Executable>
rbdock ($Id: //depot/dev/client3/rdock/2013.1/src/exe/rbdock.cxx#4 $)

>  <Rbt.Library>
libRbt.so (2013.1, Build901 2013/11/27)

>  <Rbt.Parameter_File>
/home/j5wagner/env_00/source/rDock/rDock_2013.1_src//data/scripts/dock.prm

>  <Rbt.Receptor>
/extra/banzai2/j5wagner/CELPP/2016_10_17_rdock_implementation/normal_run/tutorialVideo/tutorial_rdock_implementation/full_week_run/4-docking/1fcz/LMCSS_1fcz_tech_prep/rDockGridGenInput.prm

>  <SCORE>
-44.629

>  <SCORE.INTER>
-24.7108

>  <SCORE.INTER.CONST>
1

>  <SCORE.INTER.POLAR>
-0.877082

>  <SCORE.INTER.REPUL>
0

>  <SCORE.INTER.ROT>
4

>  <SCORE.INTER.VDW>
-31.1287

>  <SCORE.INTER.norm>
-0.915213

>  <SCORE.INTRA>
-0.265369

>  <SCORE.INTRA.DIHEDRAL>
-1.02363

>  <SCORE.INTRA.DIHEDRAL.0>
10.7811

>  <SCORE.INTRA.POLAR>
0

>  <SCORE.INTRA.POLAR.0>
0

>  <SCORE.INTRA.REPUL>
0

>  <SCORE.INTRA.REPUL.0>
0

>  <SCORE.INTRA.VDW>
0.246445

>  <SCORE.INTRA.VDW.0>
-0.812999

>  <SCORE.INTRA.norm>
-0.00982847

>  <SCORE.RESTR>
0

>  <SCORE.RESTR.CAVITY>
0

>  <SCORE.RESTR.norm>
0

>  <SCORE.SYSTEM>
-19.6529

>  <SCORE.SYSTEM.CONST>
0

>  <SCORE.SYSTEM.DIHEDRAL>
1.38171

>  <SCORE.SYSTEM.POLAR>
-4.99501

>  <SCORE.SYSTEM.VDW>
-3.3607

>  <SCORE.SYSTEM.norm>
-0.727885

>  <SCORE.heavy>
27

>  <SCORE.norm>
-1.65293

$$$$

  rDOCK(R)          3D
libRbt.so/2013.1/901 2013/11/27
 28 30  0  0  0  0  0  0  0  0999 V2000
   38.9741   13.6845   85.0332 C   0  0  0  0  0  0
   39.9998   12.9315   84.2808 C   0  0  0  0  0  0
   39.8372   11.6899   84.1375 O   0  0  0  0  0  0
   41.2116   13.5662   83.7075 C   0  0  0  0  0  0
   41.7668   13.0715   82.5214 C   0  0  0  0  0  0
   42.9402   13.6285   81.9624 C   0  0  0  0  0  0
   43.5167   14.7757   82.5867 C   0  0  0  0  0  0
   42.9780   15.2163   83.8153 C   0  0  0  0  0  0
   41.8479   14.6204   84.3663 C   0  0  0  0  0  0
   44.7495   15.4933   82.0161 C   0  0  0  0  0  0
   44.5365   17.0278   82.0097 C   0  0  0  0  0  0
   45.9755   15.1675   82.8995 C   0  0  0  0  0  0
   45.0242   15.0731   80.5509 C   0  0  0  0  0  0
   44.9209   13.5656   80.3543 C   0  0  0  0  0  0
   43.5007   13.0293   80.6628 C   0  0  0  0  0  0
   43.6189   11.4885   80.7748 C   0  0  0  0  0  0
   42.5425   13.3689   79.4981 C   0  0  0  0  0  0
   38.9035   15.0239   85.0214 C   0  0  0  0  0  0
   37.8827   15.8053   85.7622 C   0  0  0  0  0  0
   37.7076   17.1909   85.5831 C   0  0  0  0  0  0
   36.7365   17.8842   86.3123 C   0  0  0  0  0  0
   35.9209   17.2112   87.2382 C   0  0  0  0  0  0
   34.8892   17.9342   88.0214 C   0  0  0  0  0  0
   34.4709   19.0532   87.6210 O   0  0  0  0  0  0
   34.3717   17.4175   89.2087 O   0  0  0  0  0  0
   36.1160   15.8339   87.4360 C   0  0  0  0  0  0
   37.0863   15.1409   86.7073 C   0  0  0  0  0  0
   33.6770   17.9055   89.7590 H   0  0  0  0  0  0
  1  2  1  0  0  0
  2  3  2  0  0  0
  2  4  1  0  0  0
  4  5  2  0  0  0
  5  6  1  0  0  0
  6  7  2  0  0  0
  7  8  1  0  0  0
  8  9  2  0  0  0
  7 10  1  0  0  0
 10 11  1  0  0  0
 10 12  1  0  0  0
 10 13  1  0  0  0
 13 14  1  0  0  0
 14 15  1  0  0  0
 15 16  1  0  0  0
 15 17  1  0  0  0
  1 18  2  0  0  0
 18 19  1  0  0  0
 19 20  2  0  0  0
 20 21  1  0  0  0
 21 22  2  0  0  0
 22 23  1  0  0  0
 23 24  2  0  0  0
 23 25  1  0  0  0
 22 26  1  0  0  0
 26 27  2  0  0  0
  9  4  1  0  0  0
 27 19  1  0  0  0
 15  6  1  0  0  0
 25 28  1  0  0  0
M  END
>  <CHROM.0>
-157.53413921,-60.34928513,-65.29847043,67.29443602,64.57808605,-57.46431171
-178.05150011,71.33422875

>  <CHROM.1>
-166.42179497,-147.71781536,-170.55719946,19.78572683,179.17099378,40.42883642
15.04773568,84.08422975,2.68020930,0.52908055,0.29165601

>  <Name>

>  <RI>
3.36268e+07

>  <Rbt.Current_Directory>
/extra/banzai2/j5wagner/CELPP/2016_10_17_rdock_implementation/normal_run/tutorialVideo/tutorial_rdock_implementation/full_week_run/4-docking/1fcz/LMCSS_1fcz_docking

>  <Rbt.Executable>
rbdock ($Id: //depot/dev/client3/rdock/2013.1/src/exe/rbdock.cxx#4 $)

>  <Rbt.Library>
libRbt.so (2013.1, Build901 2013/11/27)

>  <Rbt.Parameter_File>
/home/j5wagner/env_00/source/rDock/rDock_2013.1_src//data/scripts/dock.prm

>  <Rbt.Receptor>
/extra/banzai2/j5wagner/CELPP/2016_10_17_rdock_implementation/normal_run/tutorialVideo/tutorial_rdock_implementation/full_week_run/4-docking/1fcz/LMCSS_1fcz_tech_prep/rDockGridGenInput.prm

>  <SCORE>
-51.2867

>  <SCORE.INTER>
-30.2487

>  <SCORE.INTER.CONST>
1

>  <SCORE.INTER.POLAR>
-1.66903

>  <SCORE.INTER.REPUL>
0.00168531

>  <SCORE.INTER.ROT>
4

>  <SCORE.INTER.VDW>
-33.9824

>  <SCORE.INTER.norm>
-1.12032

>  <SCORE.INTRA>
-1.42326

>  <SCORE.INTRA.DIHEDRAL>
-4.23433

>  <SCORE.INTRA.DIHEDRAL.0>
10.7811

>  <SCORE.INTRA.POLAR>
0

>  <SCORE.INTRA.POLAR.0>
0

>  <SCORE.INTRA.REPUL>
0

>  <SCORE.INTRA.REPUL.0>
0

>  <SCORE.INTRA.VDW>
0.693906

>  <SCORE.INTRA.VDW.0>
-0.812999

>  <SCORE.INTRA.norm>
-0.0527133

>  <SCORE.RESTR>
0

>  <SCORE.RESTR.CAVITY>
0

>  <SCORE.RESTR.norm>
0

>  <SCORE.SYSTEM>
-19.6148

>  <SCORE.SYSTEM.CONST>
0

>  <SCORE.SYSTEM.DIHEDRAL>
1.7905

>  <SCORE.SYSTEM.POLAR>
-4.98742

>  <SCORE.SYSTEM.VDW>
-3.55281

>  <SCORE.SYSTEM.norm>
-0.726474

>  <SCORE.heavy>
27

>  <SCORE.norm>
-1.89951

$$$$

  rDOCK(R)          3D
libRbt.so/2013.1/901 2013/11/27
 28 30  0  0  0  0  0  0  0  0999 V2000
   38.6747   14.0288   84.9632 C   0  0  0  0  0  0
   39.6208   13.0913   84.3218 C   0  0  0  0  0  0
   39.3185   11.8679   84.2986 O   0  0  0  0  0  0
   40.9085   13.5224   83.7254 C   0  0  0  0  0  0
   41.3276   12.9872   82.5016 C   0  0  0  0  0  0
   42.5640   13.3483   81.9182 C   0  0  0  0  0  0
   43.3576   14.3461   82.5608 C   0  0  0  0  0  0
   42.9463   14.8234   83.8245 C   0  0  0  0  0  0
   41.7451   14.4166   84.3969 C   0  0  0  0  0  0
   44.6810   14.8549   81.9694 C   0  0  0  0  0  0
   44.7484   16.4016   82.0268 C   0  0  0  0  0  0
   45.8553   14.2775   82.7924 C   0  0  0  0  0  0
   44.8291   14.4550   80.4804 C   0  0  0  0  0  0
   44.4492   13.0002   80.2335 C   0  0  0  0  0  0
   42.9659   12.7142   80.5771 C   0  0  0  0  0  0
   42.8076   11.1738   80.6287 C   0  0  0  0  0  0
   42.0486   13.2693   79.4634 C   0  0  0  0  0  0
   38.8509   15.3585   84.9508 C   0  0  0  0  0  0
   37.9161   16.3229   85.5813 C   0  0  0  0  0  0
   38.0705   17.7178   85.4667 C   0  0  0  0  0  0
   37.1667   18.5858   86.0874 C   0  0  0  0  0  0
   36.0911   18.0815   86.8384 C   0  0  0  0  0  0
   35.1267   18.9901   87.5053 C   0  0  0  0  0  0
   34.0195   18.5416   87.9055 O   0  0  0  0  0  0
   35.4017   20.3443   87.6926 O   0  0  0  0  0  0
   35.9548   16.6897   86.9748 C   0  0  0  0  0  0
   36.8577   15.8222   86.3545 C   0  0  0  0  0  0
   34.7548   20.9744   88.1488 H   0  0  0  0  0  0
  1  2  1  0  0  0
  2  3  2  0  0  0
  2  4  1  0  0  0
  4  5  2  0  0  0
  5  6  1  0  0  0
  6  7  2  0  0  0
  7  8  1  0  0  0
  8  9  2  0  0  0
  7 10  1  0  0  0
 10 11  1  0  0  0
 10 12  1  0  0  0
 10 13  1  0  0  0
 13 14  1  0  0  0
 14 15  1  0  0  0
 15 16  1  0  0  0
 15 17  1  0  0  0
  1 18  2  0  0  0
 18 19  1  0  0  0
 19 20  2  0  0  0
 20 21  1  0  0  0
 21 22  2  0  0  0
 22 23  1  0  0  0
 23 24  2  0  0  0
 23 25  1  0  0  0
 22 26  1  0  0  0
 26 27  2  0  0  0
  9  4  1  0  0  0
 27 19  1  0  0  0
 15  6  1  0  0  0
 25 28  1  0  0  0
M  END
>  <CHROM.0>
2.03475515,178.57660137,-65.26158623,68.51167806,63.10837493,-176.03336564
179.55726462,69.48055462

>  <CHROM.1>
-174.73084444,-138.12980335,-175.03782955,163.77168036,-179.76389438,40.29385809
15.17381868,83.92693332,2.52339665,0.45103923,0.33443274

>  <Name>

>  <RI>
3.36268e+07

>  <Rbt.Current_Directory>
/extra/banzai2/j5wagner/CELPP/2016_10_17_rdock_implementation/normal_run/tutorialVideo/tutorial_rdock_implementation/full_week_run/4-docking/1fcz/LMCSS_1fcz_docking

>  <Rbt.Executable>
rbdock ($Id: //depot/dev/client3/rdock/2013.1/src/exe/rbdock.cxx#4 $)

>  <Rbt.Library>
libRbt.so (2013.1, Build901 2013/11/27)

>  <Rbt.Parameter_File>
/home/j5wagner/env_00/source/rDock/rDock_2013.1_src//data/scripts/dock.prm

>  <Rbt.Receptor>
/extra/banzai2/j5wagner/CELPP/2016_10_17_rdock_implementation/normal_run/tutorialVideo/tutorial_rdock_implementation/full_week_run/4-docking/1fcz/LMCSS_1fcz_tech_prep/rDockGridGenInput.prm

>  <SCORE>
-43.0446

>  <SCORE.INTER>
-25.67

>  <SCORE.INTER.CONST>
1

>  <SCORE.INTER.POLAR>
-0.503929

>  <SCORE.INTER.REPUL>
0

>  <SCORE.INTER.ROT>
4

>  <SCORE.INTER.VDW>
-33.3566

>  <SCORE.INTER.norm>
-0.950741

>  <SCORE.INTRA>
-1.1332

>  <SCORE.INTRA.DIHEDRAL>
-3.37516

>  <SCORE.INTRA.DIHEDRAL.0>
10.7811

>  <SCORE.INTRA.POLAR>
0

>  <SCORE.INTRA.POLAR.0>
0

>  <SCORE.INTRA.REPUL>
0

>  <SCORE.INTRA.REPUL.0>
0

>  <SCORE.INTRA.VDW>
0.554379

>  <SCORE.INTRA.VDW.0>
-0.812999

>  <SCORE.INTRA.norm>
-0.0419704

>  <SCORE.RESTR>
0

>  <SCORE.RESTR.CAVITY>
0

>  <SCORE.RESTR.norm>
0

>  <SCORE.SYSTEM>
-16.2414

>  <SCORE.SYSTEM.CONST>
0

>  <SCORE.SYSTEM.DIHEDRAL>
1.00219

>  <SCORE.SYSTEM.POLAR>
-4.39208

>  <SCORE.SYSTEM.REPUL>
0.202354

>  <SCORE.SYSTEM.VDW>
-2.82122

>  <SCORE.SYSTEM.norm>
-0.601535

>  <SCORE.heavy>
27

>  <SCORE.norm>
-1.59425

$$$$

  rDOCK(R)          3D
libRbt.so/2013.1/901 2013/11/27
 28 30  0  0  0  0  0  0  0  0999 V2000
   39.9382   15.2178   85.4332 C   0  0  0  0  0  0
   41.0790   14.3141   85.1741 C   0  0  0  0  0  0
   41.6345   13.7630   86.1622 O   0  0  0  0  0  0
   41.6053   14.0444   83.8139 C   0  0  0  0  0  0
   42.9562   14.2740   83.5274 C   0  0  0  0  0  0
   43.4873   14.0608   82.2343 C   0  0  0  0  0  0
   42.6341   13.5190   81.2259 C   0  0  0  0  0  0
   41.2626   13.3567   81.5195 C   0  0  0  0  0  0
   40.7576   13.6173   82.7896 C   0  0  0  0  0  0
   43.1354   13.1875   79.8120 C   0  0  0  0  0  0
   42.6343   11.7910   79.3661 C   0  0  0  0  0  0
   42.5935   14.2462   78.8245 C   0  0  0  0  0  0
   44.6826   13.1485   79.7521 C   0  0  0  0  0  0
   45.3177   14.3291   80.4763 C   0  0  0  0  0  0
   44.9778   14.3427   81.9876 C   0  0  0  0  0  0
   45.3672   15.7442   82.5213 C   0  0  0  0  0  0
   45.8202   13.2791   82.7287 C   0  0  0  0  0  0
   39.1147   15.0642   86.4809 C   0  0  0  0  0  0
   37.9659   15.9580   86.7684 C   0  0  0  0  0  0
   37.7858   17.1967   86.1236 C   0  0  0  0  0  0
   36.6902   18.0075   86.4362 C   0  0  0  0  0  0
   35.7520   17.6019   87.4008 C   0  0  0  0  0  0
   34.5871   18.4532   87.7453 C   0  0  0  0  0  0
   34.4499   19.5777   87.1939 O   0  0  0  0  0  0
   33.6351   18.0521   88.6821 O   0  0  0  0  0  0
   35.9486   16.3785   88.0633 C   0  0  0  0  0  0
   37.0432   15.5681   87.7510 C   0  0  0  0  0  0
   33.7202   17.1956   89.2139 H   0  0  0  0  0  0
  1  2  1  0  0  0
  2  3  2  0  0  0
  2  4  1  0  0  0
  4  5  2  0  0  0
  5  6  1  0  0  0
  6  7  2  0  0  0
  7  8  1  0  0  0
  8  9  2  0  0  0
  7 10  1  0  0  0
 10 11  1  0  0  0
 10 12  1  0  0  0
 10 13  1  0  0  0
 13 14  1  0  0  0
 14 15  1  0  0  0
 15 16  1  0  0  0
 15 17  1  0  0  0
  1 18  2  0  0  0
 18 19  1  0  0  0
 19 20  2  0  0  0
 20 21  1  0  0  0
 21 22  2  0  0  0
 22 23  1  0  0  0
 23 24  2  0  0  0
 23 25  1  0  0  0
 22 26  1  0  0  0
 26 27  2  0  0  0
  9  4  1  0  0  0
 27 19  1  0  0  0
 15  6  1  0  0  0
 25 28  1  0  0  0
M  END
>  <CHROM.0>
-161.80651335,-60.53966222,-66.89696353,69.34892370,62.59286991,-59.19204045
-178.31378636,72.44904602

>  <CHROM.1>
-29.55964708,124.14548963,-12.77048529,-1.98386905,4.02686718,40.46431461
15.13394822,84.07676147,-2.46756062,0.34434830,-1.71160685

>  <Name>

>  <RI>
3.36268e+07

>  <Rbt.Current_Directory>
/extra/banzai2/j5wagner/CELPP/2016_10_17_rdock_implementation/normal_run/tutorialVideo/tutorial_rdock_implementation/full_week_run/4-docking/1fcz/LMCSS_1fcz_docking

>  <Rbt.Executable>
rbdock ($Id: //depot/dev/client3/rdock/2013.1/src/exe/rbdock.cxx#4 $)

>  <Rbt.Library>
libRbt.so (2013.1, Build901 2013/11/27)

>  <Rbt.Parameter_File>
/home/j5wagner/env_00/source/rDock/rDock_2013.1_src//data/scripts/dock.prm

>  <Rbt.Receptor>
/extra/banzai2/j5wagner/CELPP/2016_10_17_rdock_implementation/normal_run/tutorialVideo/tutorial_rdock_implementation/full_week_run/4-docking/1fcz/LMCSS_1fcz_tech_prep/rDockGridGenInput.prm

>  <SCORE>
-42.4957

>  <SCORE.INTER>
-23.6246

>  <SCORE.INTER.CONST>
1

>  <SCORE.INTER.POLAR>
-1.20175

>  <SCORE.INTER.REPUL>
0

>  <SCORE.INTER.ROT>
4

>  <SCORE.INTER.VDW>
-28.9387

>  <SCORE.INTER.norm>
-0.874985

>  <SCORE.INTRA>
0.697919

>  <SCORE.INTRA.DIHEDRAL>
0.999143

>  <SCORE.INTRA.DIHEDRAL.0>
10.7811

>  <SCORE.INTRA.POLAR>
0

>  <SCORE.INTRA.POLAR.0>
0

>  <SCORE.INTRA.REPUL>
0

>  <SCORE.INTRA.REPUL.0>
0

>  <SCORE.INTRA.VDW>
0.198348

>  <SCORE.INTRA.VDW.0>
-0.812999

>  <SCORE.INTRA.norm>
0.0258489

>  <SCORE.RESTR>
0

>  <SCORE.RESTR.CAVITY>
0

>  <SCORE.RESTR.norm>
0

>  <SCORE.SYSTEM>
-19.5691

>  <SCORE.SYSTEM.CONST>
0

>  <SCORE.SYSTEM.DIHEDRAL>
1.88703

>  <SCORE.SYSTEM.POLAR>
-4.98334

>  <SCORE.SYSTEM.VDW>
-3.56924

>  <SCORE.SYSTEM.norm>
-0.724781

>  <SCORE.heavy>
27

>  <SCORE.norm>
-1.57392

$$$$

  rDOCK(R)          3D
libRbt.so/2013.1/901 2013/11/27
 28 30  0  0  0  0  0  0  0  0999 V2000
   38.6548   13.8453   85.3854 C   0  0  0  0  0  0
   39.6902   13.0832   84.6557 C   0  0  0  0  0  0
   39.5865   11.8276   84.6197 O   0  0  0  0  0  0
   40.8465   13.7261   83.9852 C   0  0  0  0  0  0
   41.3067   13.2342   82.7580 C   0  0  0  0  0  0
   42.4264   13.7991   82.1048 C   0  0  0  0  0  0
   43.0434   14.9513   82.6794 C   0  0  0  0  0  0
   42.6036   15.3892   83.9477 C   0  0  0  0  0  0
   41.5266   14.7857   84.5894 C   0  0  0  0  0  0
   44.2202   15.6773   82.0099 C   0  0  0  0  0  0
   43.9960   17.2102   82.0201 C   0  0  0  0  0  0
   45.5166   15.3615   82.7905 C   0  0  0  0  0  0
   44.3776   15.2575   80.5273 C   0  0  0  0  0  0
   44.2698   13.7491   80.3405 C   0  0  0  0  0  0
   42.8835   13.2027   80.7642 C   0  0  0  0  0  0
   43.0218   11.6629   80.8669 C   0  0  0  0  0  0
   41.8310   13.5340   79.6813 C   0  0  0  0  0  0
   38.5936   15.1852   85.3682 C   0  0  0  0  0  0
   37.5635   15.9756   86.0863 C   0  0  0  0  0  0
   36.5567   15.3798   86.8698 C   0  0  0  0  0  0
   35.6028   16.1687   87.5204 C   0  0  0  0  0  0
   35.6305   17.5688   87.4012 C   0  0  0  0  0  0
   34.6230   18.4180   88.0825 C   0  0  0  0  0  0
   33.7063   17.8797   88.7586 O   0  0  0  0  0  0
   34.6480   19.8090   87.9858 O   0  0  0  0  0  0
   36.6189   18.1599   86.5963 C   0  0  0  0  0  0
   37.5723   17.3718   85.9463 C   0  0  0  0  0  0
   35.3272   20.3046   87.4231 H   0  0  0  0  0  0
  1  2  1  0  0  0
  2  3  2  0  0  0
  2  4  1  0  0  0
  4  5  2  0  0  0
  5  6  1  0  0  0
  6  7  2  0  0  0
  7  8  1  0  0  0
  8  9  2  0  0  0
  7 10  1  0  0  0
 10 11  1  0  0  0
 10 12  1  0  0  0
 10 13  1  0  0  0
 13 14  1  0  0  0
 14 15  1  0  0  0
 15 16  1  0  0  0
 15 17  1  0  0  0
  1 18  2  0  0  0
 18 19  1  0  0  0
 19 20  2  0  0  0
 20 21  1  0  0  0
 21 22  2  0  0  0
 22 23  1  0  0  0
 23 24  2  0  0  0
 23 25  1  0  0  0
 22 26  1  0  0  0
 26 27  2  0  0  0
  9  4  1  0  0  0
 27 19  1  0  0  0
 15  6  1  0  0  0
 25 28  1  0  0  0
M  END
>  <CHROM.0>
-158.72070483,-179.39558118,-66.30541808,68.06931672,61.95513046,65.54182352
60.42998351,71.41549826

>  <CHROM.1>
-172.89941221,-141.91163741,0.71525934,-1.53519809,2.34284341,40.02213296
15.29190697,84.23035334,2.68180850,0.56722547,0.22528152

>  <Name>

>  <RI>
3.36268e+07

>  <Rbt.Current_Directory>
/extra/banzai2/j5wagner/CELPP/2016_10_17_rdock_implementation/normal_run/tutorialVideo/tutorial_rdock_implementation/full_week_run/4-docking/1fcz/LMCSS_1fcz_docking

>  <Rbt.Executable>
rbdock ($Id: //depot/dev/client3/rdock/2013.1/src/exe/rbdock.cxx#4 $)

>  <Rbt.Library>
libRbt.so (2013.1, Build901 2013/11/27)

>  <Rbt.Parameter_File>
/home/j5wagner/env_00/source/rDock/rDock_2013.1_src//data/scripts/dock.prm

>  <Rbt.Receptor>
/extra/banzai2/j5wagner/CELPP/2016_10_17_rdock_implementation/normal_run/tutorialVideo/tutorial_rdock_implementation/full_week_run/4-docking/1fcz/LMCSS_1fcz_tech_prep/rDockGridGenInput.prm

>  <SCORE>
-55.7389

>  <SCORE.INTER>
-34.2513

>  <SCORE.INTER.CONST>
1

>  <SCORE.INTER.POLAR>
-2.66041

>  <SCORE.INTER.REPUL>
0

>  <SCORE.INTER.ROT>
4

>  <SCORE.INTER.VDW>
-34.6059

>  <SCORE.INTER.norm>
-1.26857

>  <SCORE.INTRA>
-2.21323

>  <SCORE.INTRA.DIHEDRAL>
-5.22707

>  <SCORE.INTRA.DIHEDRAL.0>
10.7811

>  <SCORE.INTRA.POLAR>
0

>  <SCORE.INTRA.POLAR.0>
0

>  <SCORE.INTRA.REPUL>
0

>  <SCORE.INTRA.REPUL.0>
0

>  <SCORE.INTRA.VDW>
0.400308

>  <SCORE.INTRA.VDW.0>
-0.812999

>  <SCORE.INTRA.norm>
-0.0819714

>  <SCORE.RESTR>
0

>  <SCORE.RESTR.CAVITY>
0

>  <SCORE.RESTR.norm>
0

>  <SCORE.SYSTEM>
-19.2743

>  <SCORE.SYSTEM.CONST>
0

>  <SCORE.SYSTEM.DIHEDRAL>
1.84511

>  <SCORE.SYSTEM.POLAR>
-4.95218

>  <SCORE.SYSTEM.VDW>
-3.35949

>  <SCORE.SYSTEM.norm>
-0.713864

>  <SCORE.heavy>
27

>  <SCORE.norm>
-2.0644

$$$$

  rDOCK(R)          3D
libRbt.so/2013.1/901 2013/11/27
 28 30  0  0  0  0  0  0  0  0999 V2000
   38.5567   13.8464   85.3031 C   0  0  0  0  0  0
   39.5557   13.0660   84.5427 C   0  0  0  0  0  0
   39.3840   11.8213   84.4427 O   0  0  0  0  0  0
   40.7514   13.6770   83.9128 C   0  0  0  0  0  0
   41.2384   13.1743   82.7004 C   0  0  0  0  0  0
   42.3948   13.7086   82.0865 C   0  0  0  0  0  0
   43.0244   14.8419   82.6844 C   0  0  0  0  0  0
   42.5548   15.2900   83.9383 C   0  0  0  0  0  0
   41.4404   14.7160   84.5421 C   0  0  0  0  0  0
   44.2430   15.5355   82.0564 C   0  0  0  0  0  0
   44.0618   17.0741   82.0631 C   0  0  0  0  0  0
   45.5031   15.1820   82.8791 C   0  0  0  0  0  0
   44.4380   15.1138   80.5789 C   0  0  0  0  0  0
   44.2941   13.6094   80.3847 C   0  0  0  0  0  0
   42.8795   13.1016   80.7604 C   0  0  0  0  0  0
   42.9710   11.5584   80.8637 C   0  0  0  0  0  0
   41.8736   13.4643   79.6438 C   0  0  0  0  0  0
   38.5336   15.1875   85.3060 C   0  0  0  0  0  0
   37.5406   15.9963   86.0552 C   0  0  0  0  0  0
   36.4659   15.4202   86.7594 C   0  0  0  0  0  0
   35.5511   16.2268   87.4434 C   0  0  0  0  0  0
   35.6863   17.6257   87.4374 C   0  0  0  0  0  0
   34.7215   18.4941   88.1554 C   0  0  0  0  0  0
   33.6831   17.9902   88.6606 O   0  0  0  0  0  0
   34.9201   19.8689   88.2780 O   0  0  0  0  0  0
   36.7430   18.2002   86.7110 C   0  0  0  0  0  0
   37.6574   17.3944   86.0276 C   0  0  0  0  0  0
   34.2774   20.4706   88.7763 H   0  0  0  0  0  0
  1  2  1  0  0  0
  2  3  2  0  0  0
  2  4  1  0  0  0
  4  5  2  0  0  0
  5  6  1  0  0  0
  6  7  2  0  0  0
  7  8  1  0  0  0
  8  9  2  0  0  0
  7 10  1  0  0  0
 10 11  1  0  0  0
 10 12  1  0  0  0
 10 13  1  0  0  0
 13 14  1  0  0  0
 14 15  1  0  0  0
 15 16  1  0  0  0
 15 17  1  0  0  0
  1 18  2  0  0  0
 18 19  1  0  0  0
 19 20  2  0  0  0
 20 21  1  0  0  0
 21 22  2  0  0  0
 22 23  1  0  0  0
 23 24  2  0  0  0
 23 25  1  0  0  0
 22 26  1  0  0  0
 26 27  2  0  0  0
  9  4  1  0  0  0
 27 19  1  0  0  0
 15  6  1  0  0  0
 25 28  1  0  0  0
M  END
>  <CHROM.0>
-158.09849629,-60.74347962,-63.42853710,177.35908305,-174.41698418,-56.03851248
-178.06995052,71.73007400

>  <CHROM.1>
-169.90875202,-145.38985757,-4.71505238,-7.69153548,-179.08406625,40.01146119
15.25425054,84.23077816,2.62201494,0.53455247,0.30336612

>  <Name>

>  <RI>
3.36268e+07

>  <Rbt.Current_Directory>
/extra/banzai2/j5wagner/CELPP/2016_10_17_rdock_implementation/normal_run/tutorialVideo/tutorial_rdock_implementation/full_week_run/4-docking/1fcz/LMCSS_1fcz_docking

>  <Rbt.Executable>
rbdock ($Id: //depot/dev/client3/rdock/2013.1/src/exe/rbdock.cxx#4 $)

>  <Rbt.Library>
libRbt.so (2013.1, Build901 2013/11/27)

>  <Rbt.Parameter_File>
/home/j5wagner/env_00/source/rDock/rDock_2013.1_src//data/scripts/dock.prm

>  <Rbt.Receptor>
/extra/banzai2/j5wagner/CELPP/2016_10_17_rdock_implementation/normal_run/tutorialVideo/tutorial_rdock_implementation/full_week_run/4-docking/1fcz/LMCSS_1fcz_tech_prep/rDockGridGenInput.prm

>  <SCORE>
-47.7459

>  <SCORE.INTER>
-27.2435

>  <SCORE.INTER.CONST>
1

>  <SCORE.INTER.POLAR>
-0.922351

>  <SCORE.INTER.REPUL>
0

>  <SCORE.INTER.ROT>
4

>  <SCORE.INTER.VDW>
-33.5075

>  <SCORE.INTER.norm>
-1.00902

>  <SCORE.INTRA>
-2.3079

>  <SCORE.INTRA.DIHEDRAL>
-5.55821

>  <SCORE.INTRA.DIHEDRAL.0>
10.7811

>  <SCORE.INTRA.POLAR>
0

>  <SCORE.INTRA.POLAR.0>
0

>  <SCORE.INTRA.REPUL>
0

>  <SCORE.INTRA.REPUL.0>
0

>  <SCORE.INTRA.VDW>
0.471201

>  <SCORE.INTRA.VDW.0>
-0.812999

>  <SCORE.INTRA.norm>
-0.0854779

>  <SCORE.RESTR>
0

>  <SCORE.RESTR.CAVITY>
0

>  <SCORE.RESTR.norm>
0

>  <SCORE.SYSTEM>
-18.1945

>  <SCORE.SYSTEM.CONST>
0

>  <SCORE.SYSTEM.DIHEDRAL>
1.54393

>  <SCORE.SYSTEM.POLAR>
-4.78265

>  <SCORE.SYSTEM.VDW>
-2.70544

>  <SCORE.SYSTEM.norm>
-0.67387

>  <SCORE.heavy>
27

>  <SCORE.norm>
-1.76837

$$$$
