
  rDOCK(R)          3D
libRbt.so/2013.1/901 2013/11/27
 14 14  0  0  0  0  0  0  0  0999 V2000
   30.0343   27.0958   23.2099 C   0  0  0  0  0  0
   31.0068   27.9464   23.7619 O   0  0  0  0  0  0
   29.9036   27.3179   21.8198 O   0  0  0  0  0  0
   29.8632   26.0557   21.1873 C   0  0  0  0  0  0
   28.7113   26.0117   20.1756 C   0  0  0  0  0  0
   27.4771   26.0890   20.8360 O   0  0  0  0  0  0
   29.7239   24.9735   22.2546 C   0  0  0  0  0  0
   30.3884   23.7973   21.8706 O   0  0  0  0  0  0
   30.3539   25.6251   23.4603 C   0  0  0  0  0  0
   31.7454   25.4165   23.4760 O   0  0  0  0  0  0
   31.7661   27.9828   23.1230 H   0  0  0  0  0  0
   27.3981   27.0158   21.1835 H   0  0  0  0  0  0
   30.1307   23.6255   20.9274 H   0  0  0  0  0  0
   31.8873   24.4522   23.6639 H   0  0  0  0  0  0
  1  2  1  0  0  0
  1  3  1  0  0  0
  3  4  1  0  0  0
  4  5  1  0  0  0
  5  6  1  0  0  0
  4  7  1  0  0  0
  7  8  1  0  0  0
  7  9  1  0  0  0
  9 10  1  0  0  0
  9  1  1  0  0  0
  2 11  1  0  0  0
  6 12  1  0  0  0
  8 13  1  0  0  0
 10 14  1  0  0  0
M  END
>  <CHROM.0>
-47.71211776,171.71984300,50.13609216,-58.04031578,-166.96157911,71.94778136
66.67670604

>  <CHROM.1>
-40.94230847,-66.25464148,70.63059134,-46.24122113,178.64993152,29.94095183
26.03367294,22.20675056,0.37618873,-0.74995672,0.27349486

>  <Name>

>  <RI>
224

>  <Rbt.Current_Directory>
/extra/banzai2/j5wagner/CELPP/2016_10_17_rdock_implementation/normal_run/tutorialVideo/tutorial_rdock_implementation/full_week_run/4-docking/5m93/hiResHolo_1ogw_docking

>  <Rbt.Executable>
rbdock ($Id: //depot/dev/client3/rdock/2013.1/src/exe/rbdock.cxx#4 $)

>  <Rbt.Library>
libRbt.so (2013.1, Build901 2013/11/27)

>  <Rbt.Parameter_File>
/home/j5wagner/env_00/source/rDock/rDock_2013.1_src//data/scripts/dock.prm

>  <Rbt.Receptor>
/extra/banzai2/j5wagner/CELPP/2016_10_17_rdock_implementation/normal_run/tutorialVideo/tutorial_rdock_implementation/full_week_run/4-docking/5m93/hiResHolo_1ogw_tech_prep/rDockGridGenInput.prm

>  <SCORE>
-26.1542

>  <SCORE.INTER>
-15.441

>  <SCORE.INTER.CONST>
1

>  <SCORE.INTER.POLAR>
-3.3669

>  <SCORE.INTER.REPUL>
0.157196

>  <SCORE.INTER.ROT>
1

>  <SCORE.INTER.VDW>
-11.1795

>  <SCORE.INTER.norm>
-1.5441

>  <SCORE.INTRA>
-0.405974

>  <SCORE.INTRA.DIHEDRAL>
-1.47005

>  <SCORE.INTRA.DIHEDRAL.0>
5.02738

>  <SCORE.INTRA.POLAR>
0

>  <SCORE.INTRA.POLAR.0>
0

>  <SCORE.INTRA.REPUL>
0

>  <SCORE.INTRA.REPUL.0>
0

>  <SCORE.INTRA.VDW>
0.32905

>  <SCORE.INTRA.VDW.0>
-0.709724

>  <SCORE.INTRA.norm>
-0.0405974

>  <SCORE.RESTR>
0.135553

>  <SCORE.RESTR.CAVITY>
0.135553

>  <SCORE.RESTR.norm>
0.0135553

>  <SCORE.SYSTEM>
-10.4429

>  <SCORE.SYSTEM.CONST>
0

>  <SCORE.SYSTEM.DIHEDRAL>
2.08783

>  <SCORE.SYSTEM.POLAR>
-3.01952

>  <SCORE.SYSTEM.VDW>
-1.2204

>  <SCORE.SYSTEM.norm>
-1.04429

>  <SCORE.heavy>
10

>  <SCORE.norm>
-2.61542

$$$$

  rDOCK(R)          3D
libRbt.so/2013.1/901 2013/11/27
 14 14  0  0  0  0  0  0  0  0999 V2000
   29.7476   25.9902   20.6181 C   0  0  0  0  0  0
   28.9426   26.2334   19.4925 O   0  0  0  0  0  0
   29.9509   27.1788   21.3563 O   0  0  0  0  0  0
   29.7643   26.8707   22.7220 C   0  0  0  0  0  0
   30.9101   27.4592   23.5546 C   0  0  0  0  0  0
   31.9723   26.5481   23.6380 O   0  0  0  0  0  0
   29.6693   25.3551   22.8773 C   0  0  0  0  0  0
   28.8017   25.0086   23.9258 O   0  0  0  0  0  0
   29.1472   24.9240   21.5294 C   0  0  0  0  0  0
   27.7415   24.9764   21.4936 O   0  0  0  0  0  0
   29.5442   26.5065   18.7511 H   0  0  0  0  0  0
   31.6517   25.7874   24.1898 H   0  0  0  0  0  0
   29.2333   25.3242   24.7622 H   0  0  0  0  0  0
   27.4787   24.9376   20.5371 H   0  0  0  0  0  0
  1  2  1  0  0  0
  1  3  1  0  0  0
  3  4  1  0  0  0
  4  5  1  0  0  0
  5  6  1  0  0  0
  4  7  1  0  0  0
  7  8  1  0  0  0
  7  9  1  0  0  0
  9 10  1  0  0  0
  9  1  1  0  0  0
  2 11  1  0  0  0
  6 12  1  0  0  0
  8 13  1  0  0  0
 10 14  1  0  0  0
M  END
>  <CHROM.0>
-166.71235807,-55.15268186,71.66685447,63.31505188,-177.47879723,-171.64288863
-54.29610027

>  <CHROM.1>
87.78517599,-88.68218085,-68.20254810,-66.40613598,52.54255366,29.64991692
26.04623642,22.11490658,-2.39351618,0.68082306,1.87809814

>  <Name>

>  <RI>
224

>  <Rbt.Current_Directory>
/extra/banzai2/j5wagner/CELPP/2016_10_17_rdock_implementation/normal_run/tutorialVideo/tutorial_rdock_implementation/full_week_run/4-docking/5m93/hiResHolo_1ogw_docking

>  <Rbt.Executable>
rbdock ($Id: //depot/dev/client3/rdock/2013.1/src/exe/rbdock.cxx#4 $)

>  <Rbt.Library>
libRbt.so (2013.1, Build901 2013/11/27)

>  <Rbt.Parameter_File>
/home/j5wagner/env_00/source/rDock/rDock_2013.1_src//data/scripts/dock.prm

>  <Rbt.Receptor>
/extra/banzai2/j5wagner/CELPP/2016_10_17_rdock_implementation/normal_run/tutorialVideo/tutorial_rdock_implementation/full_week_run/4-docking/5m93/hiResHolo_1ogw_tech_prep/rDockGridGenInput.prm

>  <SCORE>
-10.5269

>  <SCORE.INTER>
-3.64965

>  <SCORE.INTER.CONST>
1

>  <SCORE.INTER.POLAR>
-1.33645

>  <SCORE.INTER.REPUL>
0

>  <SCORE.INTER.ROT>
1

>  <SCORE.INTER.VDW>
-5.50571

>  <SCORE.INTER.norm>
-0.364965

>  <SCORE.INTRA>
1.77389

>  <SCORE.INTRA.DIHEDRAL>
1.73386

>  <SCORE.INTRA.DIHEDRAL.0>
5.02738

>  <SCORE.INTRA.POLAR>
-0.0786808

>  <SCORE.INTRA.POLAR.0>
0

>  <SCORE.INTRA.REPUL>
0

>  <SCORE.INTRA.REPUL.0>
0

>  <SCORE.INTRA.VDW>
1.17447

>  <SCORE.INTRA.VDW.0>
-0.709724

>  <SCORE.INTRA.norm>
0.177389

>  <SCORE.RESTR>
0

>  <SCORE.RESTR.CAVITY>
0

>  <SCORE.RESTR.norm>
0

>  <SCORE.SYSTEM>
-8.65117

>  <SCORE.SYSTEM.CONST>
0

>  <SCORE.SYSTEM.DIHEDRAL>
1.40052

>  <SCORE.SYSTEM.POLAR>
-3.01159

>  <SCORE.SYSTEM.REPUL>
0.0240708

>  <SCORE.SYSTEM.VDW>
0.767611

>  <SCORE.SYSTEM.norm>
-0.865117

>  <SCORE.heavy>
10

>  <SCORE.norm>
-1.05269

$$$$

  rDOCK(R)          3D
libRbt.so/2013.1/901 2013/11/27
 14 14  0  0  0  0  0  0  0  0999 V2000
   23.3370   24.9448   18.0534 C   0  0  0  0  0  0
   21.9567   24.9253   17.7921 O   0  0  0  0  0  0
   24.0534   25.4254   16.9333 O   0  0  0  0  0  0
   25.0104   26.3516   17.4035 C   0  0  0  0  0  0
   26.3776   26.0608   16.7718 C   0  0  0  0  0  0
   27.3006   27.0555   17.1239 O   0  0  0  0  0  0
   25.0612   26.2779   18.9272 C   0  0  0  0  0  0
   25.3481   27.5348   19.4841 O   0  0  0  0  0  0
   23.6748   25.7955   19.2741 C   0  0  0  0  0  0
   22.7798   26.8753   19.3881 O   0  0  0  0  0  0
   21.6756   25.8606   17.6123 H   0  0  0  0  0  0
   26.9324   27.9156   16.7912 H   0  0  0  0  0  0
   25.0356   27.5017   20.4258 H   0  0  0  0  0  0
   21.8730   26.4848   19.4907 H   0  0  0  0  0  0
  1  2  1  0  0  0
  1  3  1  0  0  0
  3  4  1  0  0  0
  4  5  1  0  0  0
  5  6  1  0  0  0
  4  7  1  0  0  0
  7  8  1  0  0  0
  7  9  1  0  0  0
  9 10  1  0  0  0
  9  1  1  0  0  0
  2 11  1  0  0  0
  6 12  1  0  0  0
  8 13  1  0  0  0
 10 14  1  0  0  0
M  END
>  <CHROM.0>
73.13543760,172.77905571,-48.06240233,-56.43921877,-12.97008870,-59.51959654
66.99772647

>  <CHROM.1>
-61.45240701,173.92145178,-59.43249052,159.16034134,60.60554011,24.46615189
26.16986790,18.12151882,3.10535494,0.38224497,0.99667844

>  <Name>

>  <RI>
224

>  <Rbt.Current_Directory>
/extra/banzai2/j5wagner/CELPP/2016_10_17_rdock_implementation/normal_run/tutorialVideo/tutorial_rdock_implementation/full_week_run/4-docking/5m93/hiResHolo_1ogw_docking

>  <Rbt.Executable>
rbdock ($Id: //depot/dev/client3/rdock/2013.1/src/exe/rbdock.cxx#4 $)

>  <Rbt.Library>
libRbt.so (2013.1, Build901 2013/11/27)

>  <Rbt.Parameter_File>
/home/j5wagner/env_00/source/rDock/rDock_2013.1_src//data/scripts/dock.prm

>  <Rbt.Receptor>
/extra/banzai2/j5wagner/CELPP/2016_10_17_rdock_implementation/normal_run/tutorialVideo/tutorial_rdock_implementation/full_week_run/4-docking/5m93/hiResHolo_1ogw_tech_prep/rDockGridGenInput.prm

>  <SCORE>
-14.6835

>  <SCORE.INTER>
-4.89283

>  <SCORE.INTER.CONST>
1

>  <SCORE.INTER.POLAR>
-1.38821

>  <SCORE.INTER.REPUL>
0

>  <SCORE.INTER.ROT>
1

>  <SCORE.INTER.VDW>
-6.57292

>  <SCORE.INTER.norm>
-0.489283

>  <SCORE.INTRA>
-0.547549

>  <SCORE.INTRA.DIHEDRAL>
-2.64424

>  <SCORE.INTRA.DIHEDRAL.0>
5.02738

>  <SCORE.INTRA.POLAR>
0

>  <SCORE.INTRA.POLAR.0>
0

>  <SCORE.INTRA.REPUL>
0

>  <SCORE.INTRA.REPUL.0>
0

>  <SCORE.INTRA.VDW>
0.774572

>  <SCORE.INTRA.VDW.0>
-0.709724

>  <SCORE.INTRA.norm>
-0.0547549

>  <SCORE.RESTR>
0

>  <SCORE.RESTR.CAVITY>
0

>  <SCORE.RESTR.norm>
0

>  <SCORE.SYSTEM>
-9.24313

>  <SCORE.SYSTEM.CONST>
0

>  <SCORE.SYSTEM.DIHEDRAL>
1.52174

>  <SCORE.SYSTEM.POLAR>
-2.8312

>  <SCORE.SYSTEM.REPUL>
0.0609033

>  <SCORE.SYSTEM.VDW>
-0.68243

>  <SCORE.SYSTEM.norm>
-0.924313

>  <SCORE.heavy>
10

>  <SCORE.norm>
-1.46835

$$$$

  rDOCK(R)          3D
libRbt.so/2013.1/901 2013/11/27
 14 14  0  0  0  0  0  0  0  0999 V2000
   26.9049   27.6517   15.0837 C   0  0  0  0  0  0
   26.2927   26.3920   15.1946 O   0  0  0  0  0  0
   26.2015   28.4736   14.1735 O   0  0  0  0  0  0
   26.0701   29.7499   14.7637 C   0  0  0  0  0  0
   26.4511   30.8382   13.7523 C   0  0  0  0  0  0
   25.6762   30.7187   12.5901 O   0  0  0  0  0  0
   26.9422   29.8068   16.0152 C   0  0  0  0  0  0
   26.3618   30.6248   16.9981 O   0  0  0  0  0  0
   27.0044   28.3585   16.4322 C   0  0  0  0  0  0
   25.9094   28.0223   17.2494 O   0  0  0  0  0  0
   26.2679   25.9931   14.2855 H   0  0  0  0  0  0
   25.9564   31.4541   11.9847 H   0  0  0  0  0  0
   25.4866   30.2139   17.2231 H   0  0  0  0  0  0
   26.0391   28.4987   18.1106 H   0  0  0  0  0  0
  1  2  1  0  0  0
  1  3  1  0  0  0
  3  4  1  0  0  0
  4  5  1  0  0  0
  5  6  1  0  0  0
  4  7  1  0  0  0
  7  8  1  0  0  0
  7  9  1  0  0  0
  9 10  1  0  0  0
  9  1  1  0  0  0
  2 11  1  0  0  0
  6 12  1  0  0  0
  8 13  1  0  0  0
 10 14  1  0  0  0
M  END
>  <CHROM.0>
73.69499431,175.10944023,-166.97715113,62.74595467,-8.88900691,-58.97491725
-54.13561413

>  <CHROM.1>
57.87433661,56.05813684,179.08211259,60.95259474,179.12286922,26.34086317
29.05332881,15.22167890,0.42783294,1.47500739,-2.79587900

>  <Name>

>  <RI>
224

>  <Rbt.Current_Directory>
/extra/banzai2/j5wagner/CELPP/2016_10_17_rdock_implementation/normal_run/tutorialVideo/tutorial_rdock_implementation/full_week_run/4-docking/5m93/hiResHolo_1ogw_docking

>  <Rbt.Executable>
rbdock ($Id: //depot/dev/client3/rdock/2013.1/src/exe/rbdock.cxx#4 $)

>  <Rbt.Library>
libRbt.so (2013.1, Build901 2013/11/27)

>  <Rbt.Parameter_File>
/home/j5wagner/env_00/source/rDock/rDock_2013.1_src//data/scripts/dock.prm

>  <Rbt.Receptor>
/extra/banzai2/j5wagner/CELPP/2016_10_17_rdock_implementation/normal_run/tutorialVideo/tutorial_rdock_implementation/full_week_run/4-docking/5m93/hiResHolo_1ogw_tech_prep/rDockGridGenInput.prm

>  <SCORE>
-18.5845

>  <SCORE.INTER>
-8.36532

>  <SCORE.INTER.CONST>
1

>  <SCORE.INTER.POLAR>
-2.13698

>  <SCORE.INTER.REPUL>
0

>  <SCORE.INTER.ROT>
1

>  <SCORE.INTER.VDW>
-7.49959

>  <SCORE.INTER.norm>
-0.836532

>  <SCORE.INTRA>
-1.78154

>  <SCORE.INTRA.DIHEDRAL>
-4.57844

>  <SCORE.INTRA.DIHEDRAL.0>
5.02738

>  <SCORE.INTRA.POLAR>
0

>  <SCORE.INTRA.POLAR.0>
0

>  <SCORE.INTRA.REPUL>
0

>  <SCORE.INTRA.REPUL.0>
0

>  <SCORE.INTRA.VDW>
0.507684

>  <SCORE.INTRA.VDW.0>
-0.709724

>  <SCORE.INTRA.norm>
-0.178154

>  <SCORE.RESTR>
0

>  <SCORE.RESTR.CAVITY>
0

>  <SCORE.RESTR.norm>
0

>  <SCORE.SYSTEM>
-8.43765

>  <SCORE.SYSTEM.CONST>
0

>  <SCORE.SYSTEM.DIHEDRAL>
1.2753

>  <SCORE.SYSTEM.POLAR>
-2.88282

>  <SCORE.SYSTEM.REPUL>
0.0533234

>  <SCORE.SYSTEM.VDW>
0.45968

>  <SCORE.SYSTEM.norm>
-0.843765

>  <SCORE.heavy>
10

>  <SCORE.norm>
-1.85845

$$$$

  rDOCK(R)          3D
libRbt.so/2013.1/901 2013/11/27
 14 14  0  0  0  0  0  0  0  0999 V2000
   24.9363   26.8263   18.5427 C   0  0  0  0  0  0
   25.0951   26.4150   19.8768 O   0  0  0  0  0  0
   25.5488   28.0824   18.3282 O   0  0  0  0  0  0
   26.2771   28.0019   17.1207 C   0  0  0  0  0  0
   25.9830   29.2278   16.2471 C   0  0  0  0  0  0
   26.2893   30.4072   16.9403 O   0  0  0  0  0  0
   25.9152   26.6992   16.4123 C   0  0  0  0  0  0
   27.0134   26.1900   15.7002 O   0  0  0  0  0  0
   25.5083   25.8090   17.5600 C   0  0  0  0  0  0
   26.6266   25.1595   18.1145 O   0  0  0  0  0  0
   24.6779   27.1082   20.4525 H   0  0  0  0  0  0
   27.2663   30.3879   17.1165 H   0  0  0  0  0  0
   27.2463   26.8732   15.0187 H   0  0  0  0  0  0
   26.3093   24.6916   18.9305 H   0  0  0  0  0  0
  1  2  1  0  0  0
  1  3  1  0  0  0
  3  4  1  0  0  0
  4  5  1  0  0  0
  5  6  1  0  0  0
  4  7  1  0  0  0
  7  8  1  0  0  0
  7  9  1  0  0  0
  9 10  1  0  0  0
  9  1  1  0  0  0
  2 11  1  0  0  0
  6 12  1  0  0  0
  8 13  1  0  0  0
 10 14  1  0  0  0
M  END
>  <CHROM.0>
73.46871589,171.61909411,-48.48499103,63.30602386,-174.36682605,72.11998545
-53.77307967

>  <CHROM.1>
59.24531145,57.15867734,63.17502407,-61.60495364,60.88609252,25.95136951
27.29137701,17.51714167,1.85343927,-1.13792873,2.94023753

>  <Name>

>  <RI>
224

>  <Rbt.Current_Directory>
/extra/banzai2/j5wagner/CELPP/2016_10_17_rdock_implementation/normal_run/tutorialVideo/tutorial_rdock_implementation/full_week_run/4-docking/5m93/hiResHolo_1ogw_docking

>  <Rbt.Executable>
rbdock ($Id: //depot/dev/client3/rdock/2013.1/src/exe/rbdock.cxx#4 $)

>  <Rbt.Library>
libRbt.so (2013.1, Build901 2013/11/27)

>  <Rbt.Parameter_File>
/home/j5wagner/env_00/source/rDock/rDock_2013.1_src//data/scripts/dock.prm

>  <Rbt.Receptor>
/extra/banzai2/j5wagner/CELPP/2016_10_17_rdock_implementation/normal_run/tutorialVideo/tutorial_rdock_implementation/full_week_run/4-docking/5m93/hiResHolo_1ogw_tech_prep/rDockGridGenInput.prm

>  <SCORE>
-24.2073

>  <SCORE.INTER>
-12.5303

>  <SCORE.INTER.CONST>
1

>  <SCORE.INTER.POLAR>
-1.54559

>  <SCORE.INTER.REPUL>
0.0110415

>  <SCORE.INTER.ROT>
1

>  <SCORE.INTER.VDW>
-13.7305

>  <SCORE.INTER.norm>
-1.25303

>  <SCORE.INTRA>
-1.93901

>  <SCORE.INTRA.DIHEDRAL>
-4.57152

>  <SCORE.INTRA.DIHEDRAL.0>
5.02738

>  <SCORE.INTRA.POLAR>
0

>  <SCORE.INTRA.POLAR.0>
0

>  <SCORE.INTRA.REPUL>
0

>  <SCORE.INTRA.REPUL.0>
0

>  <SCORE.INTRA.VDW>
0.346752

>  <SCORE.INTRA.VDW.0>
-0.709724

>  <SCORE.INTRA.norm>
-0.193901

>  <SCORE.RESTR>
0

>  <SCORE.RESTR.CAVITY>
0

>  <SCORE.RESTR.norm>
0

>  <SCORE.SYSTEM>
-9.73801

>  <SCORE.SYSTEM.CONST>
0

>  <SCORE.SYSTEM.DIHEDRAL>
2.05781

>  <SCORE.SYSTEM.POLAR>
-3.09277

>  <SCORE.SYSTEM.VDW>
-0.251485

>  <SCORE.SYSTEM.norm>
-0.973801

>  <SCORE.heavy>
10

>  <SCORE.norm>
-2.42073

$$$$

  rDOCK(R)          3D
libRbt.so/2013.1/901 2013/11/27
 14 14  0  0  0  0  0  0  0  0999 V2000
   29.9832   27.0085   23.2030 C   0  0  0  0  0  0
   30.9610   27.8418   23.7718 O   0  0  0  0  0  0
   29.7977   27.3134   21.8349 O   0  0  0  0  0  0
   29.7553   26.0921   21.1269 C   0  0  0  0  0  0
   28.5677   26.0885   20.1562 C   0  0  0  0  0  0
   27.3579   26.1305   20.8634 O   0  0  0  0  0  0
   29.6737   24.9435   22.1289 C   0  0  0  0  0  0
   30.3434   23.8063   21.6488 O   0  0  0  0  0  0
   30.3367   25.5316   23.3496 C   0  0  0  0  0  0
   31.7311   25.3491   23.3024 O   0  0  0  0  0  0
   31.7218   27.8839   23.1349 H   0  0  0  0  0  0
   26.6321   26.1216   20.1859 H   0  0  0  0  0  0
   29.9961   23.6427   20.7333 H   0  0  0  0  0  0
   32.0970   25.7261   24.1446 H   0  0  0  0  0  0
  1  2  1  0  0  0
  1  3  1  0  0  0
  3  4  1  0  0  0
  4  5  1  0  0  0
  5  6  1  0  0  0
  4  7  1  0  0  0
  7  8  1  0  0  0
  7  9  1  0  0  0
  9 10  1  0  0  0
  9  1  1  0  0  0
  2 11  1  0  0  0
  6 12  1  0  0  0
  8 13  1  0  0  0
 10 14  1  0  0  0
M  END
>  <CHROM.0>
78.71901969,-54.95629258,-166.85349480,-57.33289665,-10.00461459,-170.42932141
61.75916275

>  <CHROM.1>
-44.60039357,-64.98025590,-179.73727137,-50.95128116,70.31991897,29.86776902
26.01427337,22.13734282,0.38988073,-0.71069086,0.33668216

>  <Name>

>  <RI>
224

>  <Rbt.Current_Directory>
/extra/banzai2/j5wagner/CELPP/2016_10_17_rdock_implementation/normal_run/tutorialVideo/tutorial_rdock_implementation/full_week_run/4-docking/5m93/hiResHolo_1ogw_docking

>  <Rbt.Executable>
rbdock ($Id: //depot/dev/client3/rdock/2013.1/src/exe/rbdock.cxx#4 $)

>  <Rbt.Library>
libRbt.so (2013.1, Build901 2013/11/27)

>  <Rbt.Parameter_File>
/home/j5wagner/env_00/source/rDock/rDock_2013.1_src//data/scripts/dock.prm

>  <Rbt.Receptor>
/extra/banzai2/j5wagner/CELPP/2016_10_17_rdock_implementation/normal_run/tutorialVideo/tutorial_rdock_implementation/full_week_run/4-docking/5m93/hiResHolo_1ogw_tech_prep/rDockGridGenInput.prm

>  <SCORE>
-20.1732

>  <SCORE.INTER>
-10.1552

>  <SCORE.INTER.CONST>
1

>  <SCORE.INTER.POLAR>
-2.31064

>  <SCORE.INTER.REPUL>
0.0714733

>  <SCORE.INTER.ROT>
1

>  <SCORE.INTER.VDW>
-9.05642

>  <SCORE.INTER.norm>
-1.01552

>  <SCORE.INTRA>
-1.05208

>  <SCORE.INTRA.DIHEDRAL>
-2.61109

>  <SCORE.INTRA.DIHEDRAL.0>
5.02738

>  <SCORE.INTRA.POLAR>
0

>  <SCORE.INTRA.POLAR.0>
0

>  <SCORE.INTRA.REPUL>
0

>  <SCORE.INTRA.REPUL.0>
0

>  <SCORE.INTRA.VDW>
0.253465

>  <SCORE.INTRA.VDW.0>
-0.709724

>  <SCORE.INTRA.norm>
-0.105208

>  <SCORE.RESTR>
0.0673507

>  <SCORE.RESTR.CAVITY>
0.0673507

>  <SCORE.RESTR.norm>
0.00673507

>  <SCORE.SYSTEM>
-9.03328

>  <SCORE.SYSTEM.CONST>
0

>  <SCORE.SYSTEM.DIHEDRAL>
1.9577

>  <SCORE.SYSTEM.POLAR>
-2.90392

>  <SCORE.SYSTEM.REPUL>
0.0495859

>  <SCORE.SYSTEM.VDW>
-0.386723

>  <SCORE.SYSTEM.norm>
-0.903328

>  <SCORE.heavy>
10

>  <SCORE.norm>
-2.01732

$$$$

  rDOCK(R)          3D
libRbt.so/2013.1/901 2013/11/27
 14 14  0  0  0  0  0  0  0  0999 V2000
   30.0891   27.1207   23.3655 C   0  0  0  0  0  0
   31.1384   27.9267   23.8382 O   0  0  0  0  0  0
   29.8146   27.3994   22.0069 O   0  0  0  0  0  0
   29.6718   26.1639   21.3376 C   0  0  0  0  0  0
   28.4162   26.1855   20.4570 C   0  0  0  0  0  0
   28.2288   24.9399   19.8417 O   0  0  0  0  0  0
   29.6198   25.0446   22.3741 C   0  0  0  0  0  0
   30.2067   23.8693   21.8777 O   0  0  0  0  0  0
   30.3942   25.6345   23.5264 C   0  0  0  0  0  0
   31.7730   25.3936   23.3823 O   0  0  0  0  0  0
   31.8064   28.0027   23.1073 H   0  0  0  0  0  0
   27.3816   25.0013   19.3276 H   0  0  0  0  0  0
   29.8484   23.7433   20.9605 H   0  0  0  0  0  0
   31.9119   24.4243   23.5452 H   0  0  0  0  0  0
  1  2  1  0  0  0
  1  3  1  0  0  0
  3  4  1  0  0  0
  4  5  1  0  0  0
  5  6  1  0  0  0
  4  7  1  0  0  0
  7  8  1  0  0  0
  7  9  1  0  0  0
  9 10  1  0  0  0
  9  1  1  0  0  0
  2 11  1  0  0  0
  6 12  1  0  0  0
  8 13  1  0  0  0
 10 14  1  0  0  0
M  END
>  <CHROM.0>
-44.37585913,-56.69496644,-168.69741417,-56.11671219,-175.08160090,-171.04792775
-55.69924490

>  <CHROM.1>
-38.53180386,-176.99628861,177.09572100,-45.87570481,177.01238833,29.96265885
25.94498694,22.17539540,0.57859428,-0.84705610,0.22120322

>  <Name>

>  <RI>
224

>  <Rbt.Current_Directory>
/extra/banzai2/j5wagner/CELPP/2016_10_17_rdock_implementation/normal_run/tutorialVideo/tutorial_rdock_implementation/full_week_run/4-docking/5m93/hiResHolo_1ogw_docking

>  <Rbt.Executable>
rbdock ($Id: //depot/dev/client3/rdock/2013.1/src/exe/rbdock.cxx#4 $)

>  <Rbt.Library>
libRbt.so (2013.1, Build901 2013/11/27)

>  <Rbt.Parameter_File>
/home/j5wagner/env_00/source/rDock/rDock_2013.1_src//data/scripts/dock.prm

>  <Rbt.Receptor>
/extra/banzai2/j5wagner/CELPP/2016_10_17_rdock_implementation/normal_run/tutorialVideo/tutorial_rdock_implementation/full_week_run/4-docking/5m93/hiResHolo_1ogw_tech_prep/rDockGridGenInput.prm

>  <SCORE>
-22.2508

>  <SCORE.INTER>
-12.5991

>  <SCORE.INTER.CONST>
1

>  <SCORE.INTER.POLAR>
-2.62875

>  <SCORE.INTER.REPUL>
0.17933

>  <SCORE.INTER.ROT>
1

>  <SCORE.INTER.VDW>
-10.958

>  <SCORE.INTER.norm>
-1.25991

>  <SCORE.INTRA>
-1.54636

>  <SCORE.INTRA.DIHEDRAL>
-1.61141

>  <SCORE.INTRA.DIHEDRAL.0>
5.02738

>  <SCORE.INTRA.POLAR>
-0.331509

>  <SCORE.INTRA.POLAR.0>
0

>  <SCORE.INTRA.REPUL>
0

>  <SCORE.INTRA.REPUL.0>
0

>  <SCORE.INTRA.VDW>
0.386477

>  <SCORE.INTRA.VDW.0>
-0.709724

>  <SCORE.INTRA.norm>
-0.154636

>  <SCORE.RESTR>
0.12239

>  <SCORE.RESTR.CAVITY>
0.12239

>  <SCORE.RESTR.norm>
0.012239

>  <SCORE.SYSTEM>
-8.22767

>  <SCORE.SYSTEM.CONST>
0

>  <SCORE.SYSTEM.DIHEDRAL>
1.48759

>  <SCORE.SYSTEM.POLAR>
-2.88733

>  <SCORE.SYSTEM.REPUL>
0.0213992

>  <SCORE.SYSTEM.VDW>
0.73846

>  <SCORE.SYSTEM.norm>
-0.822767

>  <SCORE.heavy>
10

>  <SCORE.norm>
-2.22508

$$$$

  rDOCK(R)          3D
libRbt.so/2013.1/901 2013/11/27
 14 14  0  0  0  0  0  0  0  0999 V2000
   31.0967   26.5716   23.4899 C   0  0  0  0  0  0
   31.4133   27.8002   24.0936 O   0  0  0  0  0  0
   30.6031   25.6547   24.4462 O   0  0  0  0  0  0
   29.4638   25.0308   23.8917 C   0  0  0  0  0  0
   29.5446   23.5127   24.0956 C   0  0  0  0  0  0
   30.7520   23.0144   23.5863 O   0  0  0  0  0  0
   29.3686   25.4014   22.4140 C   0  0  0  0  0  0
   28.0293   25.4888   22.0008 O   0  0  0  0  0  0
   30.0750   26.7334   22.3684 C   0  0  0  0  0  0
   29.1857   27.7851   22.6566 O   0  0  0  0  0  0
   32.0067   28.2936   23.4686 H   0  0  0  0  0  0
   30.8828   23.4390   22.6983 H   0  0  0  0  0  0
   28.0486   25.6719   21.0254 H   0  0  0  0  0  0
   28.4091   27.6770   22.0479 H   0  0  0  0  0  0
  1  2  1  0  0  0
  1  3  1  0  0  0
  3  4  1  0  0  0
  4  5  1  0  0  0
  5  6  1  0  0  0
  4  7  1  0  0  0
  7  8  1  0  0  0
  7  9  1  0  0  0
  9 10  1  0  0  0
  9  1  1  0  0  0
  2 11  1  0  0  0
  6 12  1  0  0  0
  8 13  1  0  0  0
 10 14  1  0  0  0
M  END
>  <CHROM.0>
73.65957765,-56.46160307,100.09741074,-56.63582542,-9.69368411,71.32528608
174.32885722

>  <CHROM.1>
162.41446556,-54.24219216,-44.98635021,-176.35014066,-164.03960870,29.95166665
25.72470435,23.28812394,-1.46843462,0.63911006,2.95704508

>  <Name>

>  <RI>
224

>  <Rbt.Current_Directory>
/extra/banzai2/j5wagner/CELPP/2016_10_17_rdock_implementation/normal_run/tutorialVideo/tutorial_rdock_implementation/full_week_run/4-docking/5m93/hiResHolo_1ogw_docking

>  <Rbt.Executable>
rbdock ($Id: //depot/dev/client3/rdock/2013.1/src/exe/rbdock.cxx#4 $)

>  <Rbt.Library>
libRbt.so (2013.1, Build901 2013/11/27)

>  <Rbt.Parameter_File>
/home/j5wagner/env_00/source/rDock/rDock_2013.1_src//data/scripts/dock.prm

>  <Rbt.Receptor>
/extra/banzai2/j5wagner/CELPP/2016_10_17_rdock_implementation/normal_run/tutorialVideo/tutorial_rdock_implementation/full_week_run/4-docking/5m93/hiResHolo_1ogw_tech_prep/rDockGridGenInput.prm

>  <SCORE>
-14.6848

>  <SCORE.INTER>
-9.72612

>  <SCORE.INTER.CONST>
1

>  <SCORE.INTER.POLAR>
-3.20455

>  <SCORE.INTER.REPUL>
0

>  <SCORE.INTER.ROT>
1

>  <SCORE.INTER.VDW>
-5.23065

>  <SCORE.INTER.norm>
-0.972612

>  <SCORE.INTRA>
0.305869

>  <SCORE.INTRA.DIHEDRAL>
-0.907159

>  <SCORE.INTRA.DIHEDRAL.0>
5.02738

>  <SCORE.INTRA.POLAR>
0

>  <SCORE.INTRA.POLAR.0>
0

>  <SCORE.INTRA.REPUL>
0

>  <SCORE.INTRA.REPUL.0>
0

>  <SCORE.INTRA.VDW>
0.759449

>  <SCORE.INTRA.VDW.0>
-0.709724

>  <SCORE.INTRA.norm>
0.0305869

>  <SCORE.RESTR>
1.43359

>  <SCORE.RESTR.CAVITY>
1.43359

>  <SCORE.RESTR.norm>
0.143359

>  <SCORE.SYSTEM>
-6.69817

>  <SCORE.SYSTEM.CONST>
0

>  <SCORE.SYSTEM.DIHEDRAL>
4.15221

>  <SCORE.SYSTEM.POLAR>
-2.87846

>  <SCORE.SYSTEM.REPUL>
0.0315184

>  <SCORE.SYSTEM.VDW>
0.854914

>  <SCORE.SYSTEM.norm>
-0.669817

>  <SCORE.heavy>
10

>  <SCORE.norm>
-1.46848

$$$$

  rDOCK(R)          3D
libRbt.so/2013.1/901 2013/11/27
 14 14  0  0  0  0  0  0  0  0999 V2000
   31.9696   26.2404   23.8937 C   0  0  0  0  0  0
   32.5382   26.3579   25.1732 O   0  0  0  0  0  0
   31.0034   25.2086   23.8665 O   0  0  0  0  0  0
   29.8708   25.7018   23.1818 C   0  0  0  0  0  0
   29.3948   24.6755   22.1462 C   0  0  0  0  0  0
   30.4038   24.4259   21.2054 O   0  0  0  0  0  0
   30.2281   27.0377   22.5355 C   0  0  0  0  0  0
   29.1182   27.8977   22.5073 O   0  0  0  0  0  0
   31.3299   27.5461   23.4314 C   0  0  0  0  0  0
   30.8018   28.2538   24.5270 O   0  0  0  0  0  0
   32.9538   25.4836   25.3945 H   0  0  0  0  0  0
   31.0989   23.8898   21.6695 H   0  0  0  0  0  0
   28.4351   27.4546   21.9394 H   0  0  0  0  0  0
   30.1289   27.6608   24.9523 H   0  0  0  0  0  0
  1  2  1  0  0  0
  1  3  1  0  0  0
  3  4  1  0  0  0
  4  5  1  0  0  0
  5  6  1  0  0  0
  4  7  1  0  0  0
  7  8  1  0  0  0
  7  9  1  0  0  0
  9 10  1  0  0  0
  9  1  1  0  0  0
  2 11  1  0  0  0
  6 12  1  0  0  0
  8 13  1  0  0  0
 10 14  1  0  0  0
M  END
>  <CHROM.0>
-46.44883061,174.18057071,-27.47839162,-57.46037226,-12.48067652,-173.62991691
-54.01784142

>  <CHROM.1>
59.08953456,-60.49927693,72.39605250,-62.69192548,-59.27355743,30.66763367
26.32705636,23.26665961,-0.91274833,0.73578192,-2.73723243

>  <Name>

>  <RI>
224

>  <Rbt.Current_Directory>
/extra/banzai2/j5wagner/CELPP/2016_10_17_rdock_implementation/normal_run/tutorialVideo/tutorial_rdock_implementation/full_week_run/4-docking/5m93/hiResHolo_1ogw_docking

>  <Rbt.Executable>
rbdock ($Id: //depot/dev/client3/rdock/2013.1/src/exe/rbdock.cxx#4 $)

>  <Rbt.Library>
libRbt.so (2013.1, Build901 2013/11/27)

>  <Rbt.Parameter_File>
/home/j5wagner/env_00/source/rDock/rDock_2013.1_src//data/scripts/dock.prm

>  <Rbt.Receptor>
/extra/banzai2/j5wagner/CELPP/2016_10_17_rdock_implementation/normal_run/tutorialVideo/tutorial_rdock_implementation/full_week_run/4-docking/5m93/hiResHolo_1ogw_tech_prep/rDockGridGenInput.prm

>  <SCORE>
-9.83463

>  <SCORE.INTER>
-1.79237

>  <SCORE.INTER.CONST>
1

>  <SCORE.INTER.POLAR>
-2.27317

>  <SCORE.INTER.REPUL>
0

>  <SCORE.INTER.ROT>
1

>  <SCORE.INTER.VDW>
-0.463577

>  <SCORE.INTER.norm>
-0.179237

>  <SCORE.INTRA>
-1.49186

>  <SCORE.INTRA.DIHEDRAL>
-3.89585

>  <SCORE.INTRA.DIHEDRAL.0>
5.02738

>  <SCORE.INTRA.POLAR>
0

>  <SCORE.INTRA.POLAR.0>
0

>  <SCORE.INTRA.REPUL>
0

>  <SCORE.INTRA.REPUL.0>
0

>  <SCORE.INTRA.VDW>
0.456061

>  <SCORE.INTRA.VDW.0>
-0.709724

>  <SCORE.INTRA.norm>
-0.149186

>  <SCORE.RESTR>
0.637488

>  <SCORE.RESTR.CAVITY>
0.637488

>  <SCORE.RESTR.norm>
0.0637488

>  <SCORE.SYSTEM>
-7.18788

>  <SCORE.SYSTEM.CONST>
0

>  <SCORE.SYSTEM.DIHEDRAL>
3.25587

>  <SCORE.SYSTEM.POLAR>
-2.77184

>  <SCORE.SYSTEM.REPUL>
0.0674174

>  <SCORE.SYSTEM.VDW>
0.271338

>  <SCORE.SYSTEM.norm>
-0.718788

>  <SCORE.heavy>
10

>  <SCORE.norm>
-0.983463

$$$$

  rDOCK(R)          3D
libRbt.so/2013.1/901 2013/11/27
 14 14  0  0  0  0  0  0  0  0999 V2000
   30.1702   27.0758   23.5165 C   0  0  0  0  0  0
   31.1357   28.0775   23.7118 O   0  0  0  0  0  0
   29.7517   27.0380   22.1666 O   0  0  0  0  0  0
   29.7234   25.6840   21.7657 C   0  0  0  0  0  0
   28.4094   25.3795   21.0355 C   0  0  0  0  0  0
   28.1081   26.4014   20.1242 O   0  0  0  0  0  0
   29.9070   24.8010   22.9972 C   0  0  0  0  0  0
   30.6053   23.6256   22.6759 O   0  0  0  0  0  0
   30.6852   25.6992   23.9261 C   0  0  0  0  0  0
   32.0677   25.5960   23.6855 O   0  0  0  0  0  0
   31.8617   27.9224   23.0522 H   0  0  0  0  0  0
   27.8717   27.2017   20.6624 H   0  0  0  0  0  0
   30.6268   23.0777   23.5035 H   0  0  0  0  0  0
   32.3437   24.6924   23.9898 H   0  0  0  0  0  0
  1  2  1  0  0  0
  1  3  1  0  0  0
  3  4  1  0  0  0
  4  5  1  0  0  0
  5  6  1  0  0  0
  4  7  1  0  0  0
  7  8  1  0  0  0
  7  9  1  0  0  0
  9 10  1  0  0  0
  9  1  1  0  0  0
  2 11  1  0  0  0
  6 12  1  0  0  0
  8 13  1  0  0  0
 10 14  1  0  0  0
M  END
>  <CHROM.0>
-46.56877994,-54.97899283,69.83113294,-56.19612193,-173.05623511,71.79426651
-54.46853449

>  <CHROM.1>
-53.70519025,44.36276417,-69.53852023,-175.95227907,178.73171129,30.08947796
25.94914176,22.54805820,0.11931396,-0.80320617,0.08358798

>  <Name>

>  <RI>
224

>  <Rbt.Current_Directory>
/extra/banzai2/j5wagner/CELPP/2016_10_17_rdock_implementation/normal_run/tutorialVideo/tutorial_rdock_implementation/full_week_run/4-docking/5m93/hiResHolo_1ogw_docking

>  <Rbt.Executable>
rbdock ($Id: //depot/dev/client3/rdock/2013.1/src/exe/rbdock.cxx#4 $)

>  <Rbt.Library>
libRbt.so (2013.1, Build901 2013/11/27)

>  <Rbt.Parameter_File>
/home/j5wagner/env_00/source/rDock/rDock_2013.1_src//data/scripts/dock.prm

>  <Rbt.Receptor>
/extra/banzai2/j5wagner/CELPP/2016_10_17_rdock_implementation/normal_run/tutorialVideo/tutorial_rdock_implementation/full_week_run/4-docking/5m93/hiResHolo_1ogw_tech_prep/rDockGridGenInput.prm

>  <SCORE>
-23.8028

>  <SCORE.INTER>
-13.0948

>  <SCORE.INTER.CONST>
1

>  <SCORE.INTER.POLAR>
-3.18404

>  <SCORE.INTER.REPUL>
0.379479

>  <SCORE.INTER.ROT>
1

>  <SCORE.INTER.VDW>
-10.5665

>  <SCORE.INTER.norm>
-1.30948

>  <SCORE.INTRA>
-1.34661

>  <SCORE.INTRA.DIHEDRAL>
-3.11144

>  <SCORE.INTRA.DIHEDRAL.0>
5.02738

>  <SCORE.INTRA.POLAR>
0

>  <SCORE.INTRA.POLAR.0>
0

>  <SCORE.INTRA.REPUL>
0

>  <SCORE.INTRA.REPUL.0>
0

>  <SCORE.INTRA.VDW>
0.209114

>  <SCORE.INTRA.VDW.0>
-0.709724

>  <SCORE.INTRA.norm>
-0.134661

>  <SCORE.RESTR>
0.358253

>  <SCORE.RESTR.CAVITY>
0.358253

>  <SCORE.RESTR.norm>
0.0358253

>  <SCORE.SYSTEM>
-9.71963

>  <SCORE.SYSTEM.CONST>
0

>  <SCORE.SYSTEM.DIHEDRAL>
1.7114

>  <SCORE.SYSTEM.POLAR>
-3.2782

>  <SCORE.SYSTEM.VDW>
0.570533

>  <SCORE.SYSTEM.norm>
-0.971963

>  <SCORE.heavy>
10

>  <SCORE.norm>
-2.38028

$$$$

  rDOCK(R)          3D
libRbt.so/2013.1/901 2013/11/27
 14 14  0  0  0  0  0  0  0  0999 V2000
   29.9346   26.7706   23.3007 C   0  0  0  0  0  0
   30.9145   27.5159   23.9777 O   0  0  0  0  0  0
   29.7846   27.2285   21.9715 O   0  0  0  0  0  0
   29.7357   26.0940   21.1317 C   0  0  0  0  0  0
   28.5698   26.2219   20.1433 C   0  0  0  0  0  0
   27.3450   26.0832   20.8112 O   0  0  0  0  0  0
   29.6116   24.8437   21.9983 C   0  0  0  0  0  0
   30.2710   23.7531   21.4083 O   0  0  0  0  0  0
   30.2581   25.2796   23.2896 C   0  0  0  0  0  0
   31.6497   25.0751   23.2500 O   0  0  0  0  0  0
   30.6093   28.4607   23.9950 H   0  0  0  0  0  0
   26.6339   26.1970   20.1276 H   0  0  0  0  0  0
   29.8504   23.6194   20.5191 H   0  0  0  0  0  0
   31.7948   24.0935   23.2758 H   0  0  0  0  0  0
  1  2  1  0  0  0
  1  3  1  0  0  0
  3  4  1  0  0  0
  4  5  1  0  0  0
  5  6  1  0  0  0
  4  7  1  0  0  0
  7  8  1  0  0  0
  7  9  1  0  0  0
  9 10  1  0  0  0
  9  1  1  0  0  0
  2 11  1  0  0  0
  6 12  1  0  0  0
  8 13  1  0  0  0
 10 14  1  0  0  0
M  END
>  <CHROM.0>
74.33024377,-58.30084441,-168.15829588,-56.23473905,-178.46696320,73.59126275
175.18947439

>  <CHROM.1>
61.14641767,-70.55203600,178.64131045,-58.70088599,178.11993392,29.81527884
25.88534239,22.12636215,0.40828639,-0.73840175,0.43740586

>  <Name>

>  <RI>
224

>  <Rbt.Current_Directory>
/extra/banzai2/j5wagner/CELPP/2016_10_17_rdock_implementation/normal_run/tutorialVideo/tutorial_rdock_implementation/full_week_run/4-docking/5m93/hiResHolo_1ogw_docking

>  <Rbt.Executable>
rbdock ($Id: //depot/dev/client3/rdock/2013.1/src/exe/rbdock.cxx#4 $)

>  <Rbt.Library>
libRbt.so (2013.1, Build901 2013/11/27)

>  <Rbt.Parameter_File>
/home/j5wagner/env_00/source/rDock/rDock_2013.1_src//data/scripts/dock.prm

>  <Rbt.Receptor>
/extra/banzai2/j5wagner/CELPP/2016_10_17_rdock_implementation/normal_run/tutorialVideo/tutorial_rdock_implementation/full_week_run/4-docking/5m93/hiResHolo_1ogw_tech_prep/rDockGridGenInput.prm

>  <SCORE>
-17.5453

>  <SCORE.INTER>
-6.18549

>  <SCORE.INTER.CONST>
1

>  <SCORE.INTER.POLAR>
-1.9768

>  <SCORE.INTER.REPUL>
0.127445

>  <SCORE.INTER.ROT>
1

>  <SCORE.INTER.VDW>
-6.5016

>  <SCORE.INTER.norm>
-0.618549

>  <SCORE.INTRA>
-1.85945

>  <SCORE.INTRA.DIHEDRAL>
-4.23406

>  <SCORE.INTRA.DIHEDRAL.0>
5.02738

>  <SCORE.INTRA.POLAR>
0

>  <SCORE.INTRA.POLAR.0>
0

>  <SCORE.INTRA.REPUL>
0

>  <SCORE.INTRA.REPUL.0>
0

>  <SCORE.INTRA.VDW>
0.257579

>  <SCORE.INTRA.VDW.0>
-0.709724

>  <SCORE.INTRA.norm>
-0.185945

>  <SCORE.RESTR>
0.0384832

>  <SCORE.RESTR.CAVITY>
0.0384832

>  <SCORE.RESTR.norm>
0.00384832

>  <SCORE.SYSTEM>
-9.53885

>  <SCORE.SYSTEM.CONST>
0

>  <SCORE.SYSTEM.DIHEDRAL>
1.86479

>  <SCORE.SYSTEM.POLAR>
-3.20191

>  <SCORE.SYSTEM.REPUL>
0.000993173

>  <SCORE.SYSTEM.VDW>
0.410279

>  <SCORE.SYSTEM.norm>
-0.953885

>  <SCORE.heavy>
10

>  <SCORE.norm>
-1.75453

$$$$

  rDOCK(R)          3D
libRbt.so/2013.1/901 2013/11/27
 14 14  0  0  0  0  0  0  0  0999 V2000
   24.5485   26.1046   19.8998 C   0  0  0  0  0  0
   25.3221   27.2198   20.2630 O   0  0  0  0  0  0
   23.2519   26.5017   19.4997 O   0  0  0  0  0  0
   22.9343   25.7958   18.3184 C   0  0  0  0  0  0
   21.5253   25.1992   18.4255 C   0  0  0  0  0  0
   21.0834   24.7599   17.1697 O   0  0  0  0  0  0
   23.9913   24.7190   18.0878 C   0  0  0  0  0  0
   24.2068   24.5087   16.7161 O   0  0  0  0  0  0
   25.1998   25.2986   18.7799 C   0  0  0  0  0  0
   25.9183   26.1441   17.9146 O   0  0  0  0  0  0
   24.7937   27.7466   20.9182 H   0  0  0  0  0  0
   20.1706   24.3921   17.3022 H   0  0  0  0  0  0
   25.0280   23.9558   16.6432 H   0  0  0  0  0  0
   26.3594   25.5590   17.2450 H   0  0  0  0  0  0
  1  2  1  0  0  0
  1  3  1  0  0  0
  3  4  1  0  0  0
  4  5  1  0  0  0
  5  6  1  0  0  0
  4  7  1  0  0  0
  7  8  1  0  0  0
  7  9  1  0  0  0
  9 10  1  0  0  0
  9  1  1  0  0  0
  2 11  1  0  0  0
  6 12  1  0  0  0
  8 13  1  0  0  0
 10 14  1  0  0  0
M  END
>  <CHROM.0>
-47.87597198,170.72772281,71.27554815,-177.45829198,172.41277403,-171.68022809
64.37227303

>  <CHROM.1>
51.41664909,166.81806550,-179.65587687,167.93463923,176.70329635,23.80641460
25.63663388,18.47465372,0.61067150,0.07843912,0.96686996

>  <Name>

>  <RI>
224

>  <Rbt.Current_Directory>
/extra/banzai2/j5wagner/CELPP/2016_10_17_rdock_implementation/normal_run/tutorialVideo/tutorial_rdock_implementation/full_week_run/4-docking/5m93/hiResHolo_1ogw_docking

>  <Rbt.Executable>
rbdock ($Id: //depot/dev/client3/rdock/2013.1/src/exe/rbdock.cxx#4 $)

>  <Rbt.Library>
libRbt.so (2013.1, Build901 2013/11/27)

>  <Rbt.Parameter_File>
/home/j5wagner/env_00/source/rDock/rDock_2013.1_src//data/scripts/dock.prm

>  <Rbt.Receptor>
/extra/banzai2/j5wagner/CELPP/2016_10_17_rdock_implementation/normal_run/tutorialVideo/tutorial_rdock_implementation/full_week_run/4-docking/5m93/hiResHolo_1ogw_tech_prep/rDockGridGenInput.prm

>  <SCORE>
-8.07389

>  <SCORE.INTER>
2.77225

>  <SCORE.INTER.CONST>
1

>  <SCORE.INTER.POLAR>
-1.23577

>  <SCORE.INTER.REPUL>
0.0536624

>  <SCORE.INTER.ROT>
1

>  <SCORE.INTER.VDW>
0.305546

>  <SCORE.INTER.norm>
0.277225

>  <SCORE.INTRA>
-1.31756

>  <SCORE.INTRA.DIHEDRAL>
-2.98282

>  <SCORE.INTRA.DIHEDRAL.0>
5.02738

>  <SCORE.INTRA.POLAR>
0

>  <SCORE.INTRA.POLAR.0>
0

>  <SCORE.INTRA.REPUL>
0

>  <SCORE.INTRA.REPUL.0>
0

>  <SCORE.INTRA.VDW>
0.173847

>  <SCORE.INTRA.VDW.0>
-0.709724

>  <SCORE.INTRA.norm>
-0.131756

>  <SCORE.RESTR>
0

>  <SCORE.RESTR.CAVITY>
0

>  <SCORE.RESTR.norm>
0

>  <SCORE.SYSTEM>
-9.52858

>  <SCORE.SYSTEM.CONST>
0

>  <SCORE.SYSTEM.DIHEDRAL>
1.60616

>  <SCORE.SYSTEM.POLAR>
-2.77285

>  <SCORE.SYSTEM.REPUL>
0.0242344

>  <SCORE.SYSTEM.VDW>
-1.02516

>  <SCORE.SYSTEM.norm>
-0.952858

>  <SCORE.heavy>
10

>  <SCORE.norm>
-0.807389

$$$$

  rDOCK(R)          3D
libRbt.so/2013.1/901 2013/11/27
 14 14  0  0  0  0  0  0  0  0999 V2000
   23.7788   25.3930   17.8532 C   0  0  0  0  0  0
   22.4509   25.7168   18.1785 O   0  0  0  0  0  0
   24.4702   26.5298   17.3750 O   0  0  0  0  0  0
   25.7330   26.5591   18.0069 C   0  0  0  0  0  0
   26.8336   26.8144   16.9696 C   0  0  0  0  0  0
   26.7596   25.8707   15.9355 O   0  0  0  0  0  0
   25.9447   25.2413   18.7475 C   0  0  0  0  0  0
   26.7034   25.4338   19.9134 O   0  0  0  0  0  0
   24.5311   24.8061   19.0438 C   0  0  0  0  0  0
   24.0719   25.3719   20.2475 O   0  0  0  0  0  0
   22.0116   24.8842   18.4947 H   0  0  0  0  0  0
   27.4884   26.0900   15.2978 H   0  0  0  0  0  0
   27.5795   25.7972   19.6205 H   0  0  0  0  0  0
   23.1193   25.1090   20.3412 H   0  0  0  0  0  0
  1  2  1  0  0  0
  1  3  1  0  0  0
  3  4  1  0  0  0
  4  5  1  0  0  0
  5  6  1  0  0  0
  4  7  1  0  0  0
  7  8  1  0  0  0
  7  9  1  0  0  0
  9 10  1  0  0  0
  9  1  1  0  0  0
  2 11  1  0  0  0
  6 12  1  0  0  0
  8 13  1  0  0  0
 10 14  1  0  0  0
M  END
>  <CHROM.0>
-163.10546468,172.38403766,71.73277328,63.76551116,-11.31693584,70.12385678
-57.43657096

>  <CHROM.1>
179.22420498,-54.55240867,179.67057289,-60.69348201,63.58698047,25.11360597
25.77360165,18.23453498,2.50134552,0.05678765,1.85818000

>  <Name>

>  <RI>
224

>  <Rbt.Current_Directory>
/extra/banzai2/j5wagner/CELPP/2016_10_17_rdock_implementation/normal_run/tutorialVideo/tutorial_rdock_implementation/full_week_run/4-docking/5m93/hiResHolo_1ogw_docking

>  <Rbt.Executable>
rbdock ($Id: //depot/dev/client3/rdock/2013.1/src/exe/rbdock.cxx#4 $)

>  <Rbt.Library>
libRbt.so (2013.1, Build901 2013/11/27)

>  <Rbt.Parameter_File>
/home/j5wagner/env_00/source/rDock/rDock_2013.1_src//data/scripts/dock.prm

>  <Rbt.Receptor>
/extra/banzai2/j5wagner/CELPP/2016_10_17_rdock_implementation/normal_run/tutorialVideo/tutorial_rdock_implementation/full_week_run/4-docking/5m93/hiResHolo_1ogw_tech_prep/rDockGridGenInput.prm

>  <SCORE>
-19.0393

>  <SCORE.INTER>
-6.78542

>  <SCORE.INTER.CONST>
1

>  <SCORE.INTER.POLAR>
0

>  <SCORE.INTER.REPUL>
0.0171942

>  <SCORE.INTER.ROT>
1

>  <SCORE.INTER.VDW>
-13.2714

>  <SCORE.INTER.norm>
-0.678542

>  <SCORE.INTRA>
-1.94356

>  <SCORE.INTRA.DIHEDRAL>
-4.5003

>  <SCORE.INTRA.DIHEDRAL.0>
5.02738

>  <SCORE.INTRA.POLAR>
0

>  <SCORE.INTRA.POLAR.0>
0

>  <SCORE.INTRA.REPUL>
0

>  <SCORE.INTRA.REPUL.0>
0

>  <SCORE.INTRA.VDW>
0.306591

>  <SCORE.INTRA.VDW.0>
-0.709724

>  <SCORE.INTRA.norm>
-0.194356

>  <SCORE.RESTR>
0

>  <SCORE.RESTR.CAVITY>
0

>  <SCORE.RESTR.norm>
0

>  <SCORE.SYSTEM>
-10.3103

>  <SCORE.SYSTEM.CONST>
0

>  <SCORE.SYSTEM.DIHEDRAL>
2.02212

>  <SCORE.SYSTEM.POLAR>
-3.27441

>  <SCORE.SYSTEM.REPUL>
0.0333519

>  <SCORE.SYSTEM.VDW>
-0.355153

>  <SCORE.SYSTEM.norm>
-1.03103

>  <SCORE.heavy>
10

>  <SCORE.norm>
-1.90393

$$$$

  rDOCK(R)          3D
libRbt.so/2013.1/901 2013/11/27
 14 14  0  0  0  0  0  0  0  0999 V2000
   25.6562   27.0968   16.7533 C   0  0  0  0  0  0
   26.2058   26.9357   15.4703 O   0  0  0  0  0  0
   24.5894   26.1923   16.9598 O   0  0  0  0  0  0
   24.7543   25.6224   18.2415 C   0  0  0  0  0  0
   23.4249   25.6544   19.0057 C   0  0  0  0  0  0
   23.6281   25.3306   20.3545 O   0  0  0  0  0  0
   25.8533   26.3810   18.9809 C   0  0  0  0  0  0
   26.5687   25.5269   19.8358 O   0  0  0  0  0  0
   26.7005   26.9075   17.8494 C   0  0  0  0  0  0
   27.6631   25.9589   17.4576 O   0  0  0  0  0  0
   26.5068   25.9926   15.3929 H   0  0  0  0  0  0
   24.0701   24.4416   20.3700 H   0  0  0  0  0  0
   26.9375   24.8037   19.2645 H   0  0  0  0  0  0
   28.3268   25.9049   18.1938 H   0  0  0  0  0  0
  1  2  1  0  0  0
  1  3  1  0  0  0
  3  4  1  0  0  0
  4  5  1  0  0  0
  5  6  1  0  0  0
  4  7  1  0  0  0
  7  8  1  0  0  0
  7  9  1  0  0  0
  9 10  1  0  0  0
  9  1  1  0  0  0
  2 11  1  0  0  0
  6 12  1  0  0  0
  8 13  1  0  0  0
 10 14  1  0  0  0
M  END
>  <CHROM.0>
-46.86083814,171.59791640,71.88872243,-178.24395278,176.35789183,-173.15992457
-54.92468807

>  <CHROM.1>
-57.93496537,-168.80928209,-56.42018510,57.97386615,178.04870227,25.53862663
26.11670150,18.09531294,0.97313030,-0.05379623,-1.25182123

>  <Name>

>  <RI>
224

>  <Rbt.Current_Directory>
/extra/banzai2/j5wagner/CELPP/2016_10_17_rdock_implementation/normal_run/tutorialVideo/tutorial_rdock_implementation/full_week_run/4-docking/5m93/hiResHolo_1ogw_docking

>  <Rbt.Executable>
rbdock ($Id: //depot/dev/client3/rdock/2013.1/src/exe/rbdock.cxx#4 $)

>  <Rbt.Library>
libRbt.so (2013.1, Build901 2013/11/27)

>  <Rbt.Parameter_File>
/home/j5wagner/env_00/source/rDock/rDock_2013.1_src//data/scripts/dock.prm

>  <Rbt.Receptor>
/extra/banzai2/j5wagner/CELPP/2016_10_17_rdock_implementation/normal_run/tutorialVideo/tutorial_rdock_implementation/full_week_run/4-docking/5m93/hiResHolo_1ogw_tech_prep/rDockGridGenInput.prm

>  <SCORE>
-17.2356

>  <SCORE.INTER>
-7.36221

>  <SCORE.INTER.CONST>
1

>  <SCORE.INTER.POLAR>
0

>  <SCORE.INTER.REPUL>
0

>  <SCORE.INTER.ROT>
1

>  <SCORE.INTER.VDW>
-13.7622

>  <SCORE.INTER.norm>
-0.736221

>  <SCORE.INTRA>
-1.28181

>  <SCORE.INTRA.DIHEDRAL>
-4.11291

>  <SCORE.INTRA.DIHEDRAL.0>
5.02738

>  <SCORE.INTRA.POLAR>
0

>  <SCORE.INTRA.POLAR.0>
0

>  <SCORE.INTRA.REPUL>
0

>  <SCORE.INTRA.REPUL.0>
0

>  <SCORE.INTRA.VDW>
0.774642

>  <SCORE.INTRA.VDW.0>
-0.709724

>  <SCORE.INTRA.norm>
-0.128181

>  <SCORE.RESTR>
0

>  <SCORE.RESTR.CAVITY>
0

>  <SCORE.RESTR.norm>
0

>  <SCORE.SYSTEM>
-8.59154

>  <SCORE.SYSTEM.CONST>
0

>  <SCORE.SYSTEM.DIHEDRAL>
1.47706

>  <SCORE.SYSTEM.POLAR>
-2.78019

>  <SCORE.SYSTEM.REPUL>
0.0303196

>  <SCORE.SYSTEM.VDW>
-0.0290192

>  <SCORE.SYSTEM.norm>
-0.859154

>  <SCORE.heavy>
10

>  <SCORE.norm>
-1.72356

$$$$

  rDOCK(R)          3D
libRbt.so/2013.1/901 2013/11/27
 14 14  0  0  0  0  0  0  0  0999 V2000
   26.2108   24.4434   18.3335 C   0  0  0  0  0  0
   27.1698   23.9402   19.2286 O   0  0  0  0  0  0
   24.9354   24.4962   18.9413 O   0  0  0  0  0  0
   24.3629   25.7480   18.6251 C   0  0  0  0  0  0
   22.9163   25.5594   18.1515 C   0  0  0  0  0  0
   22.0851   25.2387   19.2339 O   0  0  0  0  0  0
   25.2235   26.4304   17.5652 C   0  0  0  0  0  0
   25.2132   27.8253   17.7280 O   0  0  0  0  0  0
   26.5840   25.8298   17.8173 C   0  0  0  0  0  0
   27.2796   26.5544   18.8028 O   0  0  0  0  0  0
   27.1668   24.5289   20.0283 H   0  0  0  0  0  0
   21.1730   25.1093   18.8633 H   0  0  0  0  0  0
   25.7168   28.0135   18.5625 H   0  0  0  0  0  0
   28.1292   26.0684   18.9679 H   0  0  0  0  0  0
  1  2  1  0  0  0
  1  3  1  0  0  0
  3  4  1  0  0  0
  4  5  1  0  0  0
  5  6  1  0  0  0
  4  7  1  0  0  0
  7  8  1  0  0  0
  7  9  1  0  0  0
  9 10  1  0  0  0
  9  1  1  0  0  0
  2 11  1  0  0  0
  6 12  1  0  0  0
  8 13  1  0  0  0
 10 14  1  0  0  0
M  END
>  <CHROM.0>
-44.95622304,172.38677887,72.33189677,-56.00408413,-171.04097258,-59.61107783
63.27029301

>  <CHROM.1>
-57.66084608,73.17830462,-178.72733210,69.45232758,64.00131382,25.20584749
25.61538109,18.49271731,0.01319901,-0.02261058,2.76865972

>  <Name>

>  <RI>
224

>  <Rbt.Current_Directory>
/extra/banzai2/j5wagner/CELPP/2016_10_17_rdock_implementation/normal_run/tutorialVideo/tutorial_rdock_implementation/full_week_run/4-docking/5m93/hiResHolo_1ogw_docking

>  <Rbt.Executable>
rbdock ($Id: //depot/dev/client3/rdock/2013.1/src/exe/rbdock.cxx#4 $)

>  <Rbt.Library>
libRbt.so (2013.1, Build901 2013/11/27)

>  <Rbt.Parameter_File>
/home/j5wagner/env_00/source/rDock/rDock_2013.1_src//data/scripts/dock.prm

>  <Rbt.Receptor>
/extra/banzai2/j5wagner/CELPP/2016_10_17_rdock_implementation/normal_run/tutorialVideo/tutorial_rdock_implementation/full_week_run/4-docking/5m93/hiResHolo_1ogw_tech_prep/rDockGridGenInput.prm

>  <SCORE>
-20.299

>  <SCORE.INTER>
-8.41586

>  <SCORE.INTER.CONST>
1

>  <SCORE.INTER.POLAR>
-0.370494

>  <SCORE.INTER.REPUL>
0

>  <SCORE.INTER.ROT>
1

>  <SCORE.INTER.VDW>
-13.5562

>  <SCORE.INTER.norm>
-0.841586

>  <SCORE.INTRA>
-1.91276

>  <SCORE.INTRA.DIHEDRAL>
-3.54428

>  <SCORE.INTRA.DIHEDRAL.0>
5.02738

>  <SCORE.INTRA.POLAR>
-0.189271

>  <SCORE.INTRA.POLAR.0>
0

>  <SCORE.INTRA.REPUL>
0

>  <SCORE.INTRA.REPUL.0>
0

>  <SCORE.INTRA.VDW>
0.502906

>  <SCORE.INTRA.VDW.0>
-0.709724

>  <SCORE.INTRA.norm>
-0.191276

>  <SCORE.RESTR>
0

>  <SCORE.RESTR.CAVITY>
0

>  <SCORE.RESTR.norm>
0

>  <SCORE.SYSTEM>
-9.97035

>  <SCORE.SYSTEM.CONST>
0

>  <SCORE.SYSTEM.DIHEDRAL>
1.3905

>  <SCORE.SYSTEM.POLAR>
-3.03483

>  <SCORE.SYSTEM.REPUL>
0.0248315

>  <SCORE.SYSTEM.VDW>
-0.471339

>  <SCORE.SYSTEM.norm>
-0.997035

>  <SCORE.heavy>
10

>  <SCORE.norm>
-2.0299

$$$$

  rDOCK(R)          3D
libRbt.so/2013.1/901 2013/11/27
 14 14  0  0  0  0  0  0  0  0999 V2000
   30.0576   27.0875   23.2438 C   0  0  0  0  0  0
   30.9934   27.9867   23.7821 O   0  0  0  0  0  0
   29.8747   27.3208   21.8614 O   0  0  0  0  0  0
   29.8911   26.0673   21.2108 C   0  0  0  0  0  0
   28.7155   25.9687   20.2305 C   0  0  0  0  0  0
   27.4969   26.0652   20.9170 O   0  0  0  0  0  0
   29.8464   24.9639   22.2645 C   0  0  0  0  0  0
   30.5681   23.8349   21.8441 O   0  0  0  0  0  0
   30.4707   25.6352   23.4624 C   0  0  0  0  0  0
   31.8719   25.5096   23.4366 O   0  0  0  0  0  0
   31.7671   28.0172   23.1602 H   0  0  0  0  0  0
   27.4055   27.0118   21.2022 H   0  0  0  0  0  0
   30.2548   23.6286   20.9251 H   0  0  0  0  0  0
   32.2062   25.8639   24.3015 H   0  0  0  0  0  0
  1  2  1  0  0  0
  1  3  1  0  0  0
  3  4  1  0  0  0
  4  5  1  0  0  0
  5  6  1  0  0  0
  4  7  1  0  0  0
  7  8  1  0  0  0
  7  9  1  0  0  0
  9 10  1  0  0  0
  9  1  1  0  0  0
  2 11  1  0  0  0
  6 12  1  0  0  0
  8 13  1  0  0  0
 10 14  1  0  0  0
M  END
>  <CHROM.0>
-165.86594941,174.52140816,49.21229091,-178.30802061,-167.54508113,69.06614368
174.55542886

>  <CHROM.1>
-45.74239693,-61.78936035,72.22158473,-49.53475678,75.47518394,29.99981503
26.05567548,22.23073677,0.43119811,-0.70940337,0.33801461

>  <Name>

>  <RI>
224

>  <Rbt.Current_Directory>
/extra/banzai2/j5wagner/CELPP/2016_10_17_rdock_implementation/normal_run/tutorialVideo/tutorial_rdock_implementation/full_week_run/4-docking/5m93/hiResHolo_1ogw_docking

>  <Rbt.Executable>
rbdock ($Id: //depot/dev/client3/rdock/2013.1/src/exe/rbdock.cxx#4 $)

>  <Rbt.Library>
libRbt.so (2013.1, Build901 2013/11/27)

>  <Rbt.Parameter_File>
/home/j5wagner/env_00/source/rDock/rDock_2013.1_src//data/scripts/dock.prm

>  <Rbt.Receptor>
/extra/banzai2/j5wagner/CELPP/2016_10_17_rdock_implementation/normal_run/tutorialVideo/tutorial_rdock_implementation/full_week_run/4-docking/5m93/hiResHolo_1ogw_tech_prep/rDockGridGenInput.prm

>  <SCORE>
-24.8242

>  <SCORE.INTER>
-15.711

>  <SCORE.INTER.CONST>
1

>  <SCORE.INTER.POLAR>
-3.40173

>  <SCORE.INTER.REPUL>
0.165056

>  <SCORE.INTER.ROT>
1

>  <SCORE.INTER.VDW>
-11.3704

>  <SCORE.INTER.norm>
-1.5711

>  <SCORE.INTRA>
-0.517269

>  <SCORE.INTRA.DIHEDRAL>
-1.43304

>  <SCORE.INTRA.DIHEDRAL.0>
5.02738

>  <SCORE.INTRA.POLAR>
0

>  <SCORE.INTRA.POLAR.0>
0

>  <SCORE.INTRA.REPUL>
0

>  <SCORE.INTRA.REPUL.0>
0

>  <SCORE.INTRA.VDW>
0.199252

>  <SCORE.INTRA.VDW.0>
-0.709724

>  <SCORE.INTRA.norm>
-0.0517269

>  <SCORE.RESTR>
0.218509

>  <SCORE.RESTR.CAVITY>
0.218509

>  <SCORE.RESTR.norm>
0.0218509

>  <SCORE.SYSTEM>
-8.81441

>  <SCORE.SYSTEM.CONST>
0

>  <SCORE.SYSTEM.DIHEDRAL>
1.67821

>  <SCORE.SYSTEM.POLAR>
-2.73026

>  <SCORE.SYSTEM.REPUL>
0.000977581

>  <SCORE.SYSTEM.VDW>
-0.375541

>  <SCORE.SYSTEM.norm>
-0.881441

>  <SCORE.heavy>
10

>  <SCORE.norm>
-2.48242

$$$$

  rDOCK(R)          3D
libRbt.so/2013.1/901 2013/11/27
 14 14  0  0  0  0  0  0  0  0999 V2000
   24.1341   25.8492   18.5939 C   0  0  0  0  0  0
   23.3206   25.7271   19.7328 O   0  0  0  0  0  0
   24.6074   27.1742   18.4546 O   0  0  0  0  0  0
   25.9842   27.1060   18.1472 C   0  0  0  0  0  0
   26.3062   28.0349   16.9699 C   0  0  0  0  0  0
   25.7081   27.5599   15.7942 O   0  0  0  0  0  0
   26.3506   25.6557   17.8435 C   0  0  0  0  0  0
   27.6632   25.3703   18.2534 O   0  0  0  0  0  0
   25.3194   24.8893   18.6336 C   0  0  0  0  0  0
   25.7483   24.6868   19.9584 O   0  0  0  0  0  0
   22.9860   24.7925   19.7595 H   0  0  0  0  0  0
   24.7281   27.5600   15.9538 H   0  0  0  0  0  0
   28.2569   25.9662   17.7264 H   0  0  0  0  0  0
   24.9960   24.2526   20.4388 H   0  0  0  0  0  0
  1  2  1  0  0  0
  1  3  1  0  0  0
  3  4  1  0  0  0
  4  5  1  0  0  0
  5  6  1  0  0  0
  4  7  1  0  0  0
  7  8  1  0  0  0
  7  9  1  0  0  0
  9 10  1  0  0  0
  9  1  1  0  0  0
  2 11  1  0  0  0
  6 12  1  0  0  0
  8 13  1  0  0  0
 10 14  1  0  0  0
M  END
>  <CHROM.0>
72.27879745,172.53186845,-165.50960278,-55.90757645,176.61347529,71.66457957
173.37053098

>  <CHROM.1>
177.58766979,-67.52992011,61.36093197,-61.83784286,63.34985011,25.50182495
26.19242936,18.25576102,2.01040923,-0.29981709,2.37063051

>  <Name>

>  <RI>
224

>  <Rbt.Current_Directory>
/extra/banzai2/j5wagner/CELPP/2016_10_17_rdock_implementation/normal_run/tutorialVideo/tutorial_rdock_implementation/full_week_run/4-docking/5m93/hiResHolo_1ogw_docking

>  <Rbt.Executable>
rbdock ($Id: //depot/dev/client3/rdock/2013.1/src/exe/rbdock.cxx#4 $)

>  <Rbt.Library>
libRbt.so (2013.1, Build901 2013/11/27)

>  <Rbt.Parameter_File>
/home/j5wagner/env_00/source/rDock/rDock_2013.1_src//data/scripts/dock.prm

>  <Rbt.Receptor>
/extra/banzai2/j5wagner/CELPP/2016_10_17_rdock_implementation/normal_run/tutorialVideo/tutorial_rdock_implementation/full_week_run/4-docking/5m93/hiResHolo_1ogw_tech_prep/rDockGridGenInput.prm

>  <SCORE>
-20.2094

>  <SCORE.INTER>
-8.15042

>  <SCORE.INTER.CONST>
1

>  <SCORE.INTER.POLAR>
0

>  <SCORE.INTER.REPUL>
0

>  <SCORE.INTER.ROT>
1

>  <SCORE.INTER.VDW>
-14.5504

>  <SCORE.INTER.norm>
-0.815042

>  <SCORE.INTRA>
-1.7995

>  <SCORE.INTRA.DIHEDRAL>
-4.35942

>  <SCORE.INTRA.DIHEDRAL.0>
5.02738

>  <SCORE.INTRA.POLAR>
0

>  <SCORE.INTRA.POLAR.0>
0

>  <SCORE.INTRA.REPUL>
0

>  <SCORE.INTRA.REPUL.0>
0

>  <SCORE.INTRA.VDW>
0.380205

>  <SCORE.INTRA.VDW.0>
-0.709724

>  <SCORE.INTRA.norm>
-0.17995

>  <SCORE.RESTR>
0

>  <SCORE.RESTR.CAVITY>
0

>  <SCORE.RESTR.norm>
0

>  <SCORE.SYSTEM>
-10.2595

>  <SCORE.SYSTEM.CONST>
0

>  <SCORE.SYSTEM.DIHEDRAL>
2.05397

>  <SCORE.SYSTEM.POLAR>
-3.20496

>  <SCORE.SYSTEM.REPUL>
0.000948313

>  <SCORE.SYSTEM.VDW>
-0.394326

>  <SCORE.SYSTEM.norm>
-1.02595

>  <SCORE.heavy>
10

>  <SCORE.norm>
-2.02094

$$$$

  rDOCK(R)          3D
libRbt.so/2013.1/901 2013/11/27
 14 14  0  0  0  0  0  0  0  0999 V2000
   25.9837   28.3858   16.2091 C   0  0  0  0  0  0
   25.5130   28.1524   17.5121 O   0  0  0  0  0  0
   24.9104   28.6478   15.3268 O   0  0  0  0  0  0
   25.2705   29.7600   14.5342 C   0  0  0  0  0  0
   24.9723   29.4713   13.0576 C   0  0  0  0  0  0
   23.6327   29.0915   12.8943 O   0  0  0  0  0  0
   26.7465   30.0731   14.7652 C   0  0  0  0  0  0
   26.9913   31.4525   14.6663 O   0  0  0  0  0  0
   26.9749   29.5447   16.1594 C   0  0  0  0  0  0
   26.6508   30.5153   17.1252 O   0  0  0  0  0  0
   24.9471   27.3370   17.4814 H   0  0  0  0  0  0
   23.5074   28.2583   13.4198 H   0  0  0  0  0  0
   27.9720   31.5705   14.7648 H   0  0  0  0  0  0
   27.3804   31.1881   17.1097 H   0  0  0  0  0  0
  1  2  1  0  0  0
  1  3  1  0  0  0
  3  4  1  0  0  0
  4  5  1  0  0  0
  5  6  1  0  0  0
  4  7  1  0  0  0
  7  8  1  0  0  0
  7  9  1  0  0  0
  9 10  1  0  0  0
  9  1  1  0  0  0
  2 11  1  0  0  0
  6 12  1  0  0  0
  8 13  1  0  0  0
 10 14  1  0  0  0
M  END
>  <CHROM.0>
-49.82442037,175.64287450,71.57254811,-56.05880431,-174.52800129,-173.26747035
63.18433562

>  <CHROM.1>
62.93942449,54.51487122,-61.61199108,-176.20876773,174.05874310,25.74199721
29.51749642,15.25087114,0.81339406,0.76396537,2.09006090

>  <Name>

>  <RI>
224

>  <Rbt.Current_Directory>
/extra/banzai2/j5wagner/CELPP/2016_10_17_rdock_implementation/normal_run/tutorialVideo/tutorial_rdock_implementation/full_week_run/4-docking/5m93/hiResHolo_1ogw_docking

>  <Rbt.Executable>
rbdock ($Id: //depot/dev/client3/rdock/2013.1/src/exe/rbdock.cxx#4 $)

>  <Rbt.Library>
libRbt.so (2013.1, Build901 2013/11/27)

>  <Rbt.Parameter_File>
/home/j5wagner/env_00/source/rDock/rDock_2013.1_src//data/scripts/dock.prm

>  <Rbt.Receptor>
/extra/banzai2/j5wagner/CELPP/2016_10_17_rdock_implementation/normal_run/tutorialVideo/tutorial_rdock_implementation/full_week_run/4-docking/5m93/hiResHolo_1ogw_tech_prep/rDockGridGenInput.prm

>  <SCORE>
-22.7764

>  <SCORE.INTER>
-10.4828

>  <SCORE.INTER.CONST>
1

>  <SCORE.INTER.POLAR>
-1.10316

>  <SCORE.INTER.REPUL>
0

>  <SCORE.INTER.ROT>
1

>  <SCORE.INTER.VDW>
-13.132

>  <SCORE.INTER.norm>
-1.04828

>  <SCORE.INTRA>
-1.99772

>  <SCORE.INTRA.DIHEDRAL>
-4.27428

>  <SCORE.INTRA.DIHEDRAL.0>
5.02738

>  <SCORE.INTRA.POLAR>
-0.0124042

>  <SCORE.INTRA.POLAR.0>
0

>  <SCORE.INTRA.REPUL>
0

>  <SCORE.INTRA.REPUL.0>
0

>  <SCORE.INTRA.VDW>
0.181595

>  <SCORE.INTRA.VDW.0>
-0.709724

>  <SCORE.INTRA.norm>
-0.199772

>  <SCORE.RESTR>
0

>  <SCORE.RESTR.CAVITY>
0

>  <SCORE.RESTR.norm>
0

>  <SCORE.SYSTEM>
-10.2959

>  <SCORE.SYSTEM.CONST>
0

>  <SCORE.SYSTEM.DIHEDRAL>
1.02322

>  <SCORE.SYSTEM.POLAR>
-3.03298

>  <SCORE.SYSTEM.REPUL>
0.0307301

>  <SCORE.SYSTEM.VDW>
-0.649068

>  <SCORE.SYSTEM.norm>
-1.02959

>  <SCORE.heavy>
10

>  <SCORE.norm>
-2.27764

$$$$

  rDOCK(R)          3D
libRbt.so/2013.1/901 2013/11/27
 14 14  0  0  0  0  0  0  0  0999 V2000
   29.9595   25.8206   20.6685 C   0  0  0  0  0  0
   29.4874   26.4310   19.4944 O   0  0  0  0  0  0
   30.3527   26.7928   21.6168 O   0  0  0  0  0  0
   29.8299   26.4036   22.8697 C   0  0  0  0  0  0
   30.9171   26.5046   23.9469 C   0  0  0  0  0  0
   31.3993   27.8182   24.0335 O   0  0  0  0  0  0
   29.2746   24.9865   22.7539 C   0  0  0  0  0  0
   28.1616   24.8104   23.5920 O   0  0  0  0  0  0
   28.9159   24.8982   21.2914 C   0  0  0  0  0  0
   27.6184   25.3911   21.0606 O   0  0  0  0  0  0
   30.2733   26.8106   19.0208 H   0  0  0  0  0  0
   31.8981   27.9939   23.1931 H   0  0  0  0  0  0
   28.4977   24.8848   24.5231 H   0  0  0  0  0  0
   27.4772   25.3741   20.0781 H   0  0  0  0  0  0
  1  2  1  0  0  0
  1  3  1  0  0  0
  3  4  1  0  0  0
  4  5  1  0  0  0
  5  6  1  0  0  0
  4  7  1  0  0  0
  7  8  1  0  0  0
  7  9  1  0  0  0
  9 10  1  0  0  0
  9  1  1  0  0  0
  2 11  1  0  0  0
  6 12  1  0  0  0
  8 13  1  0  0  0
 10 14  1  0  0  0
M  END
>  <CHROM.0>
-45.91485193,172.90980872,56.86389873,62.31208277,-169.43957294,-60.66902425
-54.27304986

>  <CHROM.1>
72.43206667,59.24511435,-68.67323533,-65.92407076,63.67255378,29.58040805
26.02282744,22.11622774,-2.34754196,0.69465867,1.69440085

>  <Name>

>  <RI>
224

>  <Rbt.Current_Directory>
/extra/banzai2/j5wagner/CELPP/2016_10_17_rdock_implementation/normal_run/tutorialVideo/tutorial_rdock_implementation/full_week_run/4-docking/5m93/hiResHolo_1ogw_docking

>  <Rbt.Executable>
rbdock ($Id: //depot/dev/client3/rdock/2013.1/src/exe/rbdock.cxx#4 $)

>  <Rbt.Library>
libRbt.so (2013.1, Build901 2013/11/27)

>  <Rbt.Parameter_File>
/home/j5wagner/env_00/source/rDock/rDock_2013.1_src//data/scripts/dock.prm

>  <Rbt.Receptor>
/extra/banzai2/j5wagner/CELPP/2016_10_17_rdock_implementation/normal_run/tutorialVideo/tutorial_rdock_implementation/full_week_run/4-docking/5m93/hiResHolo_1ogw_tech_prep/rDockGridGenInput.prm

>  <SCORE>
-18.8286

>  <SCORE.INTER>
-9.06245

>  <SCORE.INTER.CONST>
1

>  <SCORE.INTER.POLAR>
-3.11773

>  <SCORE.INTER.REPUL>
0.0165468

>  <SCORE.INTER.ROT>
1

>  <SCORE.INTER.VDW>
-4.94489

>  <SCORE.INTER.norm>
-0.906245

>  <SCORE.INTRA>
-1.45143

>  <SCORE.INTRA.DIHEDRAL>
-3.34202

>  <SCORE.INTRA.DIHEDRAL.0>
5.02738

>  <SCORE.INTRA.POLAR>
0

>  <SCORE.INTRA.POLAR.0>
0

>  <SCORE.INTRA.REPUL>
0

>  <SCORE.INTRA.REPUL.0>
0

>  <SCORE.INTRA.VDW>
0.219583

>  <SCORE.INTRA.VDW.0>
-0.709724

>  <SCORE.INTRA.norm>
-0.145143

>  <SCORE.RESTR>
0

>  <SCORE.RESTR.CAVITY>
0

>  <SCORE.RESTR.norm>
0

>  <SCORE.SYSTEM>
-8.31469

>  <SCORE.SYSTEM.CONST>
0

>  <SCORE.SYSTEM.DIHEDRAL>
1.08118

>  <SCORE.SYSTEM.POLAR>
-2.73682

>  <SCORE.SYSTEM.REPUL>
0.0258902

>  <SCORE.SYSTEM.VDW>
0.320464

>  <SCORE.SYSTEM.norm>
-0.831469

>  <SCORE.heavy>
10

>  <SCORE.norm>
-1.88286

$$$$

  rDOCK(R)          3D
libRbt.so/2013.1/901 2013/11/27
 14 14  0  0  0  0  0  0  0  0999 V2000
   26.3265   24.5679   18.5232 C   0  0  0  0  0  0
   27.1399   23.6562   19.2169 O   0  0  0  0  0  0
   24.9617   24.2221   18.6522 O   0  0  0  0  0  0
   24.2463   25.4057   18.9391 C   0  0  0  0  0  0
   23.0045   25.4991   18.0437 C   0  0  0  0  0  0
   21.8382   25.3573   18.8085 O   0  0  0  0  0  0
   25.1752   26.6019   18.7490 C   0  0  0  0  0  0
   24.8635   27.6314   19.6518 O   0  0  0  0  0  0
   26.5343   26.0001   19.0063 C   0  0  0  0  0  0
   26.8420   26.0199   20.3792 O   0  0  0  0  0  0
   28.0622   24.0243   19.2200 H   0  0  0  0  0  0
   21.6763   26.2341   19.2453 H   0  0  0  0  0  0
   24.8371   27.2153   20.5527 H   0  0  0  0  0  0
   27.0727   26.9583   20.6065 H   0  0  0  0  0  0
  1  2  1  0  0  0
  1  3  1  0  0  0
  3  4  1  0  0  0
  4  5  1  0  0  0
  5  6  1  0  0  0
  4  7  1  0  0  0
  7  8  1  0  0  0
  7  9  1  0  0  0
  9 10  1  0  0  0
  9  1  1  0  0  0
  2 11  1  0  0  0
  6 12  1  0  0  0
  8 13  1  0  0  0
 10 14  1  0  0  0
M  END
>  <CHROM.0>
-166.06829691,-54.42122649,71.55410331,63.70939476,-168.51577640,71.22255857
61.67380793

>  <CHROM.1>
-170.87596515,111.86688298,79.03020058,51.35855910,173.26470705,25.09133241
25.50080550,19.04923010,0.10407484,0.22104891,-2.82649692

>  <Name>

>  <RI>
224

>  <Rbt.Current_Directory>
/extra/banzai2/j5wagner/CELPP/2016_10_17_rdock_implementation/normal_run/tutorialVideo/tutorial_rdock_implementation/full_week_run/4-docking/5m93/hiResHolo_1ogw_docking

>  <Rbt.Executable>
rbdock ($Id: //depot/dev/client3/rdock/2013.1/src/exe/rbdock.cxx#4 $)

>  <Rbt.Library>
libRbt.so (2013.1, Build901 2013/11/27)

>  <Rbt.Parameter_File>
/home/j5wagner/env_00/source/rDock/rDock_2013.1_src//data/scripts/dock.prm

>  <Rbt.Receptor>
/extra/banzai2/j5wagner/CELPP/2016_10_17_rdock_implementation/normal_run/tutorialVideo/tutorial_rdock_implementation/full_week_run/4-docking/5m93/hiResHolo_1ogw_tech_prep/rDockGridGenInput.prm

>  <SCORE>
-21.2754

>  <SCORE.INTER>
-12.6623

>  <SCORE.INTER.CONST>
1

>  <SCORE.INTER.POLAR>
-2.00359

>  <SCORE.INTER.REPUL>
0

>  <SCORE.INTER.ROT>
1

>  <SCORE.INTER.VDW>
-12.2502

>  <SCORE.INTER.norm>
-1.26623

>  <SCORE.INTRA>
2.01193

>  <SCORE.INTRA.DIHEDRAL>
2.96904

>  <SCORE.INTRA.DIHEDRAL.0>
5.02738

>  <SCORE.INTRA.POLAR>
0

>  <SCORE.INTRA.POLAR.0>
0

>  <SCORE.INTRA.REPUL>
0

>  <SCORE.INTRA.REPUL.0>
0

>  <SCORE.INTRA.VDW>
0.527413

>  <SCORE.INTRA.VDW.0>
-0.709724

>  <SCORE.INTRA.norm>
0.201193

>  <SCORE.RESTR>
0

>  <SCORE.RESTR.CAVITY>
0

>  <SCORE.RESTR.norm>
0

>  <SCORE.SYSTEM>
-10.625

>  <SCORE.SYSTEM.CONST>
0

>  <SCORE.SYSTEM.DIHEDRAL>
1.77891

>  <SCORE.SYSTEM.POLAR>
-3.28759

>  <SCORE.SYSTEM.VDW>
-0.336621

>  <SCORE.SYSTEM.norm>
-1.0625

>  <SCORE.heavy>
10

>  <SCORE.norm>
-2.12754

$$$$

  rDOCK(R)          3D
libRbt.so/2013.1/901 2013/11/27
 14 14  0  0  0  0  0  0  0  0999 V2000
   30.1408   27.0644   23.4038 C   0  0  0  0  0  0
   31.2284   27.7896   23.9187 O   0  0  0  0  0  0
   29.8865   27.4263   22.0609 O   0  0  0  0  0  0
   29.6827   26.2359   21.3288 C   0  0  0  0  0  0
   28.4334   26.3677   20.4488 C   0  0  0  0  0  0
   28.3877   25.3312   19.5059 O   0  0  0  0  0  0
   29.5689   25.0690   22.3061 C   0  0  0  0  0  0
   30.0963   23.8920   21.7506 O   0  0  0  0  0  0
   30.3681   25.5580   23.4882 C   0  0  0  0  0  0
   31.7332   25.2538   23.3337 O   0  0  0  0  0  0
   31.8938   27.8852   23.1877 H   0  0  0  0  0  0
   28.1493   24.5052   20.0026 H   0  0  0  0  0  0
   29.7346   23.8313   20.8281 H   0  0  0  0  0  0
   31.8145   24.2665   23.3972 H   0  0  0  0  0  0
  1  2  1  0  0  0
  1  3  1  0  0  0
  3  4  1  0  0  0
  4  5  1  0  0  0
  5  6  1  0  0  0
  4  7  1  0  0  0
  7  8  1  0  0  0
  7  9  1  0  0  0
  9 10  1  0  0  0
  9  1  1  0  0  0
  2 11  1  0  0  0
  6 12  1  0  0  0
  8 13  1  0  0  0
 10 14  1  0  0  0
M  END
>  <CHROM.0>
-166.62359442,-56.37617795,-165.92559760,-57.29686515,-174.69114590,-172.11248028
64.23765051

>  <CHROM.1>
-37.33991241,166.74285088,72.97944451,-45.95428308,-179.95872773,29.98551032
25.97174017,22.13099246,0.50250257,-0.90190866,0.22865094

>  <Name>

>  <RI>
224

>  <Rbt.Current_Directory>
/extra/banzai2/j5wagner/CELPP/2016_10_17_rdock_implementation/normal_run/tutorialVideo/tutorial_rdock_implementation/full_week_run/4-docking/5m93/hiResHolo_1ogw_docking

>  <Rbt.Executable>
rbdock ($Id: //depot/dev/client3/rdock/2013.1/src/exe/rbdock.cxx#4 $)

>  <Rbt.Library>
libRbt.so (2013.1, Build901 2013/11/27)

>  <Rbt.Parameter_File>
/home/j5wagner/env_00/source/rDock/rDock_2013.1_src//data/scripts/dock.prm

>  <Rbt.Receptor>
/extra/banzai2/j5wagner/CELPP/2016_10_17_rdock_implementation/normal_run/tutorialVideo/tutorial_rdock_implementation/full_week_run/4-docking/5m93/hiResHolo_1ogw_tech_prep/rDockGridGenInput.prm

>  <SCORE>
-20.3221

>  <SCORE.INTER>
-11.8181

>  <SCORE.INTER.CONST>
1

>  <SCORE.INTER.POLAR>
-2.6311

>  <SCORE.INTER.REPUL>
0.0767498

>  <SCORE.INTER.ROT>
1

>  <SCORE.INTER.VDW>
-9.65616

>  <SCORE.INTER.norm>
-1.18181

>  <SCORE.INTRA>
0.585601

>  <SCORE.INTRA.DIHEDRAL>
-0.116373

>  <SCORE.INTRA.DIHEDRAL.0>
5.02738

>  <SCORE.INTRA.POLAR>
0

>  <SCORE.INTRA.POLAR.0>
0

>  <SCORE.INTRA.REPUL>
0

>  <SCORE.INTRA.REPUL.0>
0

>  <SCORE.INTRA.VDW>
0.643788

>  <SCORE.INTRA.VDW.0>
-0.709724

>  <SCORE.INTRA.norm>
0.0585601

>  <SCORE.RESTR>
0.0938256

>  <SCORE.RESTR.CAVITY>
0.0938256

>  <SCORE.RESTR.norm>
0.00938256

>  <SCORE.SYSTEM>
-9.18341

>  <SCORE.SYSTEM.CONST>
0

>  <SCORE.SYSTEM.DIHEDRAL>
1.41213

>  <SCORE.SYSTEM.POLAR>
-2.9113

>  <SCORE.SYSTEM.REPUL>
0.0260939

>  <SCORE.SYSTEM.VDW>
-0.121506

>  <SCORE.SYSTEM.norm>
-0.918341

>  <SCORE.heavy>
10

>  <SCORE.norm>
-2.03221

$$$$

  rDOCK(R)          3D
libRbt.so/2013.1/901 2013/11/27
 14 14  0  0  0  0  0  0  0  0999 V2000
   25.2029   27.3205   18.0488 C   0  0  0  0  0  0
   25.3538   27.0224   19.4135 O   0  0  0  0  0  0
   25.6251   28.6415   17.7737 O   0  0  0  0  0  0
   26.4187   28.6020   16.6060 C   0  0  0  0  0  0
   25.9851   29.7102   15.6384 C   0  0  0  0  0  0
   24.6009   29.6571   15.4224 O   0  0  0  0  0  0
   26.2989   27.2174   15.9747 C   0  0  0  0  0  0
   27.4977   26.8440   15.3458 O   0  0  0  0  0  0
   25.9748   26.3470   17.1633 C   0  0  0  0  0  0
   27.1495   25.9165   17.8074 O   0  0  0  0  0  0
   24.6989   27.5776   19.9125 H   0  0  0  0  0  0
   24.1712   30.0143   16.2432 H   0  0  0  0  0  0
   28.1948   26.8388   16.0526 H   0  0  0  0  0  0
   27.5911   25.2723   17.1948 H   0  0  0  0  0  0
  1  2  1  0  0  0
  1  3  1  0  0  0
  3  4  1  0  0  0
  4  5  1  0  0  0
  5  6  1  0  0  0
  4  7  1  0  0  0
  7  8  1  0  0  0
  7  9  1  0  0  0
  9 10  1  0  0  0
  9  1  1  0  0  0
  2 11  1  0  0  0
  6 12  1  0  0  0
  8 13  1  0  0  0
 10 14  1  0  0  0
M  END
>  <CHROM.0>
72.88204796,175.19138360,71.90148046,63.51214010,-12.40920169,72.22680442
-53.58076553

>  <CHROM.1>
68.03058634,-51.68450015,74.55629280,60.10548032,178.55224882,26.01811913
27.72199039,16.94552572,1.28772304,-0.85781299,2.19898976

>  <Name>

>  <RI>
224

>  <Rbt.Current_Directory>
/extra/banzai2/j5wagner/CELPP/2016_10_17_rdock_implementation/normal_run/tutorialVideo/tutorial_rdock_implementation/full_week_run/4-docking/5m93/hiResHolo_1ogw_docking

>  <Rbt.Executable>
rbdock ($Id: //depot/dev/client3/rdock/2013.1/src/exe/rbdock.cxx#4 $)

>  <Rbt.Library>
libRbt.so (2013.1, Build901 2013/11/27)

>  <Rbt.Parameter_File>
/home/j5wagner/env_00/source/rDock/rDock_2013.1_src//data/scripts/dock.prm

>  <Rbt.Receptor>
/extra/banzai2/j5wagner/CELPP/2016_10_17_rdock_implementation/normal_run/tutorialVideo/tutorial_rdock_implementation/full_week_run/4-docking/5m93/hiResHolo_1ogw_tech_prep/rDockGridGenInput.prm

>  <SCORE>
-21.0709

>  <SCORE.INTER>
-9.56115

>  <SCORE.INTER.CONST>
1

>  <SCORE.INTER.POLAR>
-1.25472

>  <SCORE.INTER.REPUL>
0

>  <SCORE.INTER.ROT>
1

>  <SCORE.INTER.VDW>
-11.6951

>  <SCORE.INTER.norm>
-0.956115

>  <SCORE.INTRA>
-1.16207

>  <SCORE.INTRA.DIHEDRAL>
-3.1094

>  <SCORE.INTRA.DIHEDRAL.0>
5.02738

>  <SCORE.INTRA.POLAR>
0

>  <SCORE.INTRA.POLAR.0>
0

>  <SCORE.INTRA.REPUL>
0

>  <SCORE.INTRA.REPUL.0>
0

>  <SCORE.INTRA.VDW>
0.392632

>  <SCORE.INTRA.VDW.0>
-0.709724

>  <SCORE.INTRA.norm>
-0.116207

>  <SCORE.RESTR>
0

>  <SCORE.RESTR.CAVITY>
0

>  <SCORE.RESTR.norm>
0

>  <SCORE.SYSTEM>
-10.3476

>  <SCORE.SYSTEM.CONST>
0

>  <SCORE.SYSTEM.DIHEDRAL>
2.01749

>  <SCORE.SYSTEM.POLAR>
-3.30269

>  <SCORE.SYSTEM.REPUL>
0.0352155

>  <SCORE.SYSTEM.VDW>
-0.30332

>  <SCORE.SYSTEM.norm>
-1.03476

>  <SCORE.heavy>
10

>  <SCORE.norm>
-2.10709

$$$$

  rDOCK(R)          3D
libRbt.so/2013.1/901 2013/11/27
 14 14  0  0  0  0  0  0  0  0999 V2000
   29.6982   26.1539   21.5422 C   0  0  0  0  0  0
   28.6668   26.9931   21.0884 O   0  0  0  0  0  0
   30.4069   26.7592   22.6054 O   0  0  0  0  0  0
   30.5878   25.7823   23.6092 C   0  0  0  0  0  0
   32.0440   25.7873   24.0908 C   0  0  0  0  0  0
   32.4756   27.0996   24.3299 O   0  0  0  0  0  0
   30.1781   24.4213   23.0526 C   0  0  0  0  0  0
   29.6253   23.6107   24.0573 O   0  0  0  0  0  0
   29.1714   24.7949   21.9931 C   0  0  0  0  0  0
   27.8832   24.9214   22.5448 O   0  0  0  0  0  0
   28.2229   26.5331   20.3284 H   0  0  0  0  0  0
   32.5075   27.5535   23.4474 H   0  0  0  0  0  0
   30.3472   23.4560   24.7210 H   0  0  0  0  0  0
   27.7780   24.1805   23.1971 H   0  0  0  0  0  0
  1  2  1  0  0  0
  1  3  1  0  0  0
  3  4  1  0  0  0
  4  5  1  0  0  0
  5  6  1  0  0  0
  4  7  1  0  0  0
  7  8  1  0  0  0
  7  9  1  0  0  0
  9 10  1  0  0  0
  9  1  1  0  0  0
  2 11  1  0  0  0
  6 12  1  0  0  0
  8 13  1  0  0  0
 10 14  1  0  0  0
M  END
>  <CHROM.0>
-44.93472568,-56.67163566,49.04138057,-55.98525514,-176.58136461,73.03943433
-52.28802762

>  <CHROM.1>
178.30915582,46.47678425,-67.27105358,-63.36488631,-152.39126489,30.05126454
25.65224472,22.90363985,-3.04205027,0.59271483,2.55763303

>  <Name>

>  <RI>
224

>  <Rbt.Current_Directory>
/extra/banzai2/j5wagner/CELPP/2016_10_17_rdock_implementation/normal_run/tutorialVideo/tutorial_rdock_implementation/full_week_run/4-docking/5m93/hiResHolo_1ogw_docking

>  <Rbt.Executable>
rbdock ($Id: //depot/dev/client3/rdock/2013.1/src/exe/rbdock.cxx#4 $)

>  <Rbt.Library>
libRbt.so (2013.1, Build901 2013/11/27)

>  <Rbt.Parameter_File>
/home/j5wagner/env_00/source/rDock/rDock_2013.1_src//data/scripts/dock.prm

>  <Rbt.Receptor>
/extra/banzai2/j5wagner/CELPP/2016_10_17_rdock_implementation/normal_run/tutorialVideo/tutorial_rdock_implementation/full_week_run/4-docking/5m93/hiResHolo_1ogw_tech_prep/rDockGridGenInput.prm

>  <SCORE>
-17.5526

>  <SCORE.INTER>
-8.74592

>  <SCORE.INTER.CONST>
1

>  <SCORE.INTER.POLAR>
-3.0752

>  <SCORE.INTER.REPUL>
0.284273

>  <SCORE.INTER.ROT>
1

>  <SCORE.INTER.VDW>
-6.1116

>  <SCORE.INTER.norm>
-0.874592

>  <SCORE.INTRA>
-0.467221

>  <SCORE.INTRA.DIHEDRAL>
-0.748894

>  <SCORE.INTRA.DIHEDRAL.0>
5.02738

>  <SCORE.INTRA.POLAR>
-0.241281

>  <SCORE.INTRA.POLAR.0>
0

>  <SCORE.INTRA.REPUL>
0

>  <SCORE.INTRA.REPUL.0>
0

>  <SCORE.INTRA.VDW>
0.727583

>  <SCORE.INTRA.VDW.0>
-0.709724

>  <SCORE.INTRA.norm>
-0.0467221

>  <SCORE.RESTR>
0.452591

>  <SCORE.RESTR.CAVITY>
0.452591

>  <SCORE.RESTR.norm>
0.0452591

>  <SCORE.SYSTEM>
-8.79206

>  <SCORE.SYSTEM.CONST>
0

>  <SCORE.SYSTEM.DIHEDRAL>
2.034

>  <SCORE.SYSTEM.POLAR>
-3.03951

>  <SCORE.SYSTEM.VDW>
0.525274

>  <SCORE.SYSTEM.norm>
-0.879206

>  <SCORE.heavy>
10

>  <SCORE.norm>
-1.75526

$$$$

  rDOCK(R)          3D
libRbt.so/2013.1/901 2013/11/27
 14 14  0  0  0  0  0  0  0  0999 V2000
   23.6416   24.9725   17.9162 C   0  0  0  0  0  0
   22.3155   24.8354   17.4729 O   0  0  0  0  0  0
   24.4309   25.6287   16.9439 O   0  0  0  0  0  0
   25.2100   26.6000   17.6104 C   0  0  0  0  0  0
   26.6689   26.5132   17.1449 C   0  0  0  0  0  0
   26.7582   26.7591   15.7676 O   0  0  0  0  0  0
   25.0805   26.3877   19.1164 C   0  0  0  0  0  0
   25.1504   27.6090   19.8062 O   0  0  0  0  0  0
   23.7263   25.7340   19.2357 C   0  0  0  0  0  0
   22.7062   26.6998   19.3164 O   0  0  0  0  0  0
   21.9353   25.7488   17.3875 H   0  0  0  0  0  0
   26.4408   27.6888   15.6236 H   0  0  0  0  0  0
   24.7429   27.4509   20.6975 H   0  0  0  0  0  0
   21.8448   26.2067   19.3062 H   0  0  0  0  0  0
  1  2  1  0  0  0
  1  3  1  0  0  0
  3  4  1  0  0  0
  4  5  1  0  0  0
  5  6  1  0  0  0
  4  7  1  0  0  0
  7  8  1  0  0  0
  7  9  1  0  0  0
  9 10  1  0  0  0
  9  1  1  0  0  0
  2 11  1  0  0  0
  6 12  1  0  0  0
  8 13  1  0  0  0
 10 14  1  0  0  0
M  END
>  <CHROM.0>
-167.98162470,172.86085703,71.51225664,-176.75445977,178.66029070,72.68378867
175.29068352

>  <CHROM.1>
-64.90556837,60.96337289,62.61981810,160.03399587,63.06281389,24.53126396
26.20549115,18.01598144,2.77736720,0.45602274,1.11134419

>  <Name>

>  <RI>
224

>  <Rbt.Current_Directory>
/extra/banzai2/j5wagner/CELPP/2016_10_17_rdock_implementation/normal_run/tutorialVideo/tutorial_rdock_implementation/full_week_run/4-docking/5m93/hiResHolo_1ogw_docking

>  <Rbt.Executable>
rbdock ($Id: //depot/dev/client3/rdock/2013.1/src/exe/rbdock.cxx#4 $)

>  <Rbt.Library>
libRbt.so (2013.1, Build901 2013/11/27)

>  <Rbt.Parameter_File>
/home/j5wagner/env_00/source/rDock/rDock_2013.1_src//data/scripts/dock.prm

>  <Rbt.Receptor>
/extra/banzai2/j5wagner/CELPP/2016_10_17_rdock_implementation/normal_run/tutorialVideo/tutorial_rdock_implementation/full_week_run/4-docking/5m93/hiResHolo_1ogw_tech_prep/rDockGridGenInput.prm

>  <SCORE>
-15.6982

>  <SCORE.INTER>
-5.2341

>  <SCORE.INTER.CONST>
1

>  <SCORE.INTER.POLAR>
-1.1166

>  <SCORE.INTER.REPUL>
0

>  <SCORE.INTER.ROT>
1

>  <SCORE.INTER.VDW>
-7.83767

>  <SCORE.INTER.norm>
-0.52341

>  <SCORE.INTRA>
-0.573093

>  <SCORE.INTRA.DIHEDRAL>
-2.73463

>  <SCORE.INTRA.DIHEDRAL.0>
5.02738

>  <SCORE.INTRA.POLAR>
0

>  <SCORE.INTRA.POLAR.0>
0

>  <SCORE.INTRA.REPUL>
0

>  <SCORE.INTRA.REPUL.0>
0

>  <SCORE.INTRA.VDW>
0.794222

>  <SCORE.INTRA.VDW.0>
-0.709724

>  <SCORE.INTRA.norm>
-0.0573093

>  <SCORE.RESTR>
0

>  <SCORE.RESTR.CAVITY>
0

>  <SCORE.RESTR.norm>
0

>  <SCORE.SYSTEM>
-9.89101

>  <SCORE.SYSTEM.CONST>
0

>  <SCORE.SYSTEM.DIHEDRAL>
1.81911

>  <SCORE.SYSTEM.POLAR>
-3.07441

>  <SCORE.SYSTEM.REPUL>
0.000995657

>  <SCORE.SYSTEM.VDW>
-0.352534

>  <SCORE.SYSTEM.norm>
-0.989101

>  <SCORE.heavy>
10

>  <SCORE.norm>
-1.56982

$$$$

  rDOCK(R)          3D
libRbt.so/2013.1/901 2013/11/27
 14 14  0  0  0  0  0  0  0  0999 V2000
   30.1755   27.0646   23.5132 C   0  0  0  0  0  0
   31.1533   28.0547   23.7077 O   0  0  0  0  0  0
   29.7663   27.0218   22.1606 O   0  0  0  0  0  0
   29.7224   25.6652   21.7702 C   0  0  0  0  0  0
   28.4096   25.3729   21.0328 C   0  0  0  0  0  0
   28.1213   26.3989   20.1221 O   0  0  0  0  0  0
   29.8850   24.7896   23.0099 C   0  0  0  0  0  0
   30.5694   23.6023   22.7030 O   0  0  0  0  0  0
   30.6687   25.6845   23.9374 C   0  0  0  0  0  0
   32.0514   25.5605   23.7077 O   0  0  0  0  0  0
   31.8756   27.8923   23.0458 H   0  0  0  0  0  0
   27.8749   27.1960   20.6604 H   0  0  0  0  0  0
   30.6187   23.0815   23.5467 H   0  0  0  0  0  0
   32.3100   24.6503   24.0077 H   0  0  0  0  0  0
  1  2  1  0  0  0
  1  3  1  0  0  0
  3  4  1  0  0  0
  4  5  1  0  0  0
  5  6  1  0  0  0
  4  7  1  0  0  0
  7  8  1  0  0  0
  7  9  1  0  0  0
  9 10  1  0  0  0
  9  1  1  0  0  0
  2 11  1  0  0  0
  6 12  1  0  0  0
  8 13  1  0  0  0
 10 14  1  0  0  0
M  END
>  <CHROM.0>
-162.31965472,-57.93396840,-49.03173226,-57.84694199,-172.58983266,-170.81770510
64.60932168

>  <CHROM.1>
-52.89633618,43.70372429,-70.40383377,-178.81515310,179.61792486,30.08565306
25.93246787,22.55427038,0.09856519,-0.80947227,0.06310869

>  <Name>

>  <RI>
224

>  <Rbt.Current_Directory>
/extra/banzai2/j5wagner/CELPP/2016_10_17_rdock_implementation/normal_run/tutorialVideo/tutorial_rdock_implementation/full_week_run/4-docking/5m93/hiResHolo_1ogw_docking

>  <Rbt.Executable>
rbdock ($Id: //depot/dev/client3/rdock/2013.1/src/exe/rbdock.cxx#4 $)

>  <Rbt.Library>
libRbt.so (2013.1, Build901 2013/11/27)

>  <Rbt.Parameter_File>
/home/j5wagner/env_00/source/rDock/rDock_2013.1_src//data/scripts/dock.prm

>  <Rbt.Receptor>
/extra/banzai2/j5wagner/CELPP/2016_10_17_rdock_implementation/normal_run/tutorialVideo/tutorial_rdock_implementation/full_week_run/4-docking/5m93/hiResHolo_1ogw_tech_prep/rDockGridGenInput.prm

>  <SCORE>
-23.308

>  <SCORE.INTER>
-13.5726

>  <SCORE.INTER.CONST>
1

>  <SCORE.INTER.POLAR>
-3.21455

>  <SCORE.INTER.REPUL>
0.32139

>  <SCORE.INTER.ROT>
1

>  <SCORE.INTER.VDW>
-10.6501

>  <SCORE.INTER.norm>
-1.35726

>  <SCORE.INTRA>
-1.26593

>  <SCORE.INTRA.DIHEDRAL>
-2.9884

>  <SCORE.INTRA.DIHEDRAL.0>
5.02738

>  <SCORE.INTRA.POLAR>
0

>  <SCORE.INTRA.POLAR.0>
0

>  <SCORE.INTRA.REPUL>
0

>  <SCORE.INTRA.REPUL.0>
0

>  <SCORE.INTRA.VDW>
0.228273

>  <SCORE.INTRA.VDW.0>
-0.709724

>  <SCORE.INTRA.norm>
-0.126593

>  <SCORE.RESTR>
0.417039

>  <SCORE.RESTR.CAVITY>
0.417039

>  <SCORE.RESTR.norm>
0.0417039

>  <SCORE.SYSTEM>
-8.88649

>  <SCORE.SYSTEM.CONST>
0

>  <SCORE.SYSTEM.DIHEDRAL>
1.63812

>  <SCORE.SYSTEM.POLAR>
-2.80664

>  <SCORE.SYSTEM.REPUL>
0.020334

>  <SCORE.SYSTEM.VDW>
-0.264635

>  <SCORE.SYSTEM.norm>
-0.888649

>  <SCORE.heavy>
10

>  <SCORE.norm>
-2.3308

$$$$

  rDOCK(R)          3D
libRbt.so/2013.1/901 2013/11/27
 14 14  0  0  0  0  0  0  0  0999 V2000
   30.1134   27.1127   23.4069 C   0  0  0  0  0  0
   31.1700   27.9148   23.8698 O   0  0  0  0  0  0
   29.8093   27.4117   22.0589 O   0  0  0  0  0  0
   29.6562   26.1863   21.3734 C   0  0  0  0  0  0
   28.3821   26.2174   20.5200 C   0  0  0  0  0  0
   28.1871   24.9818   19.8871 O   0  0  0  0  0  0
   29.6296   25.0507   22.3930 C   0  0  0  0  0  0
   30.2096   23.8854   21.8658 O   0  0  0  0  0  0
   30.4264   25.6252   23.5378 C   0  0  0  0  0  0
   31.8026   25.3913   23.3608 O   0  0  0  0  0  0
   31.8479   27.9594   23.1456 H   0  0  0  0  0  0
   27.3526   25.0634   19.3552 H   0  0  0  0  0  0
   29.8243   23.7667   20.9587 H   0  0  0  0  0  0
   32.2615   25.7752   24.1529 H   0  0  0  0  0  0
  1  2  1  0  0  0
  1  3  1  0  0  0
  3  4  1  0  0  0
  4  5  1  0  0  0
  5  6  1  0  0  0
  4  7  1  0  0  0
  7  8  1  0  0  0
  7  9  1  0  0  0
  9 10  1  0  0  0
  9  1  1  0  0  0
  2 11  1  0  0  0
  6 12  1  0  0  0
  8 13  1  0  0  0
 10 14  1  0  0  0
M  END
>  <CHROM.0>
-46.69043176,175.92975428,-47.83871400,-55.63531284,-10.30125944,-61.64611551
-54.98079216

>  <CHROM.1>
-41.89022902,-177.11720821,179.89262187,-46.51775360,69.43970837,29.96796119
25.96427390,22.20531667,0.57286811,-0.82639194,0.23245740

>  <Name>

>  <RI>
224

>  <Rbt.Current_Directory>
/extra/banzai2/j5wagner/CELPP/2016_10_17_rdock_implementation/normal_run/tutorialVideo/tutorial_rdock_implementation/full_week_run/4-docking/5m93/hiResHolo_1ogw_docking

>  <Rbt.Executable>
rbdock ($Id: //depot/dev/client3/rdock/2013.1/src/exe/rbdock.cxx#4 $)

>  <Rbt.Library>
libRbt.so (2013.1, Build901 2013/11/27)

>  <Rbt.Parameter_File>
/home/j5wagner/env_00/source/rDock/rDock_2013.1_src//data/scripts/dock.prm

>  <Rbt.Receptor>
/extra/banzai2/j5wagner/CELPP/2016_10_17_rdock_implementation/normal_run/tutorialVideo/tutorial_rdock_implementation/full_week_run/4-docking/5m93/hiResHolo_1ogw_tech_prep/rDockGridGenInput.prm

>  <SCORE>
-23.0525

>  <SCORE.INTER>
-13.1861

>  <SCORE.INTER.CONST>
1

>  <SCORE.INTER.POLAR>
-2.63499

>  <SCORE.INTER.REPUL>
0.061302

>  <SCORE.INTER.ROT>
1

>  <SCORE.INTER.VDW>
-10.9336

>  <SCORE.INTER.norm>
-1.31861

>  <SCORE.INTRA>
-1.72146

>  <SCORE.INTRA.DIHEDRAL>
-1.91086

>  <SCORE.INTRA.DIHEDRAL.0>
5.02738

>  <SCORE.INTRA.POLAR>
-0.333202

>  <SCORE.INTRA.POLAR.0>
0

>  <SCORE.INTRA.REPUL>
0

>  <SCORE.INTRA.REPUL.0>
0

>  <SCORE.INTRA.VDW>
0.366863

>  <SCORE.INTRA.VDW.0>
-0.709724

>  <SCORE.INTRA.norm>
-0.172146

>  <SCORE.RESTR>
0.136689

>  <SCORE.RESTR.CAVITY>
0.136689

>  <SCORE.RESTR.norm>
0.0136689

>  <SCORE.SYSTEM>
-8.28169

>  <SCORE.SYSTEM.CONST>
0

>  <SCORE.SYSTEM.DIHEDRAL>
1.19657

>  <SCORE.SYSTEM.POLAR>
-2.83557

>  <SCORE.SYSTEM.REPUL>
0.0584464

>  <SCORE.SYSTEM.VDW>
0.468727

>  <SCORE.SYSTEM.norm>
-0.828169

>  <SCORE.heavy>
10

>  <SCORE.norm>
-2.30525

$$$$

  rDOCK(R)          3D
libRbt.so/2013.1/901 2013/11/27
 14 14  0  0  0  0  0  0  0  0999 V2000
   30.6273   26.9523   23.6003 C   0  0  0  0  0  0
   31.7545   27.7062   23.9677 O   0  0  0  0  0  0
   30.3844   27.0564   22.2114 O   0  0  0  0  0  0
   30.1141   25.7578   21.7263 C   0  0  0  0  0  0
   28.8683   25.7799   20.8319 C   0  0  0  0  0  0
   27.7584   26.2457   21.5506 O   0  0  0  0  0  0
   29.9449   24.8132   22.9132 C   0  0  0  0  0  0
   30.4066   23.5238   22.6020 O   0  0  0  0  0  0
   30.7757   25.4820   23.9799 C   0  0  0  0  0  0
   32.1220   25.0819   23.8943 O   0  0  0  0  0  0
   31.5683   28.6525   23.7313 H   0  0  0  0  0  0
   27.7848   27.2371   21.5033 H   0  0  0  0  0  0
   30.3184   22.9869   23.4323 H   0  0  0  0  0  0
   32.6242   25.6268   24.5548 H   0  0  0  0  0  0
  1  2  1  0  0  0
  1  3  1  0  0  0
  3  4  1  0  0  0
  4  5  1  0  0  0
  5  6  1  0  0  0
  4  7  1  0  0  0
  7  8  1  0  0  0
  7  9  1  0  0  0
  9 10  1  0  0  0
  9  1  1  0  0  0
  2 11  1  0  0  0
  6 12  1  0  0  0
  8 13  1  0  0  0
 10 14  1  0  0  0
M  END
>  <CHROM.0>
73.57259280,172.90690396,154.86653952,-176.74548365,-9.28695559,70.37110296
66.09383552

>  <CHROM.1>
60.27692125,-59.29485735,84.93180280,176.49367135,62.39364653,30.29499290
25.85541608,22.74218844,0.13887180,-0.68824222,0.03455201

>  <Name>

>  <RI>
224

>  <Rbt.Current_Directory>
/extra/banzai2/j5wagner/CELPP/2016_10_17_rdock_implementation/normal_run/tutorialVideo/tutorial_rdock_implementation/full_week_run/4-docking/5m93/hiResHolo_1ogw_docking

>  <Rbt.Executable>
rbdock ($Id: //depot/dev/client3/rdock/2013.1/src/exe/rbdock.cxx#4 $)

>  <Rbt.Library>
libRbt.so (2013.1, Build901 2013/11/27)

>  <Rbt.Parameter_File>
/home/j5wagner/env_00/source/rDock/rDock_2013.1_src//data/scripts/dock.prm

>  <Rbt.Receptor>
/extra/banzai2/j5wagner/CELPP/2016_10_17_rdock_implementation/normal_run/tutorialVideo/tutorial_rdock_implementation/full_week_run/4-docking/5m93/hiResHolo_1ogw_tech_prep/rDockGridGenInput.prm

>  <SCORE>
-19.1368

>  <SCORE.INTER>
-11.2509

>  <SCORE.INTER.CONST>
1

>  <SCORE.INTER.POLAR>
-2.90447

>  <SCORE.INTER.REPUL>
0.0133216

>  <SCORE.INTER.ROT>
1

>  <SCORE.INTER.VDW>
-7.84228

>  <SCORE.INTER.norm>
-1.12509

>  <SCORE.INTRA>
-0.826482

>  <SCORE.INTRA.DIHEDRAL>
-1.92722

>  <SCORE.INTRA.DIHEDRAL.0>
5.02738

>  <SCORE.INTRA.POLAR>
0

>  <SCORE.INTRA.POLAR.0>
0

>  <SCORE.INTRA.REPUL>
0

>  <SCORE.INTRA.REPUL.0>
0

>  <SCORE.INTRA.VDW>
0.137126

>  <SCORE.INTRA.VDW.0>
-0.709724

>  <SCORE.INTRA.norm>
-0.0826482

>  <SCORE.RESTR>
0.625013

>  <SCORE.RESTR.CAVITY>
0.625013

>  <SCORE.RESTR.norm>
0.0625013

>  <SCORE.SYSTEM>
-7.68444

>  <SCORE.SYSTEM.CONST>
0

>  <SCORE.SYSTEM.DIHEDRAL>
2.88315

>  <SCORE.SYSTEM.POLAR>
-2.43511

>  <SCORE.SYSTEM.REPUL>
0.0298371

>  <SCORE.SYSTEM.VDW>
-0.995825

>  <SCORE.SYSTEM.norm>
-0.768444

>  <SCORE.heavy>
10

>  <SCORE.norm>
-1.91368

$$$$

  rDOCK(R)          3D
libRbt.so/2013.1/901 2013/11/27
 14 14  0  0  0  0  0  0  0  0999 V2000
   29.9080   26.7756   23.3064 C   0  0  0  0  0  0
   30.8824   27.5139   23.9988 O   0  0  0  0  0  0
   29.7743   27.2418   21.9783 O   0  0  0  0  0  0
   29.7316   26.1124   21.1313 C   0  0  0  0  0  0
   28.5773   26.2495   20.1307 C   0  0  0  0  0  0
   27.3590   25.9205   20.7413 O   0  0  0  0  0  0
   29.5940   24.8574   21.9891 C   0  0  0  0  0  0
   30.2568   23.7683   21.4002 O   0  0  0  0  0  0
   30.2272   25.2837   23.2901 C   0  0  0  0  0  0
   31.6186   25.0753   23.2650 O   0  0  0  0  0  0
   30.5908   28.4632   23.9987 H   0  0  0  0  0  0
   27.4100   24.9572   20.9768 H   0  0  0  0  0  0
   29.8352   23.6311   20.5120 H   0  0  0  0  0  0
   31.7602   24.0929   23.2759 H   0  0  0  0  0  0
  1  2  1  0  0  0
  1  3  1  0  0  0
  3  4  1  0  0  0
  4  5  1  0  0  0
  5  6  1  0  0  0
  4  7  1  0  0  0
  7  8  1  0  0  0
  7  9  1  0  0  0
  9 10  1  0  0  0
  9  1  1  0  0  0
  2 11  1  0  0  0
  6 12  1  0  0  0
  8 13  1  0  0  0
 10 14  1  0  0  0
M  END
>  <CHROM.0>
-44.35232010,173.06684151,68.26276954,-176.66628822,170.99267757,72.05898684
172.41769151

>  <CHROM.1>
59.77435359,-79.08324538,-64.95748830,-59.66247069,178.76760745,29.80599213
25.86877693,22.12680344,0.46331832,-0.75224093,0.42071037

>  <Name>

>  <RI>
224

>  <Rbt.Current_Directory>
/extra/banzai2/j5wagner/CELPP/2016_10_17_rdock_implementation/normal_run/tutorialVideo/tutorial_rdock_implementation/full_week_run/4-docking/5m93/hiResHolo_1ogw_docking

>  <Rbt.Executable>
rbdock ($Id: //depot/dev/client3/rdock/2013.1/src/exe/rbdock.cxx#4 $)

>  <Rbt.Library>
libRbt.so (2013.1, Build901 2013/11/27)

>  <Rbt.Parameter_File>
/home/j5wagner/env_00/source/rDock/rDock_2013.1_src//data/scripts/dock.prm

>  <Rbt.Receptor>
/extra/banzai2/j5wagner/CELPP/2016_10_17_rdock_implementation/normal_run/tutorialVideo/tutorial_rdock_implementation/full_week_run/4-docking/5m93/hiResHolo_1ogw_tech_prep/rDockGridGenInput.prm

>  <SCORE>
-16.2988

>  <SCORE.INTER>
-5.78347

>  <SCORE.INTER.CONST>
1

>  <SCORE.INTER.POLAR>
-1.96662

>  <SCORE.INTER.REPUL>
0.236591

>  <SCORE.INTER.ROT>
1

>  <SCORE.INTER.VDW>
-6.67992

>  <SCORE.INTER.norm>
-0.578347

>  <SCORE.INTRA>
-0.771727

>  <SCORE.INTRA.DIHEDRAL>
-3.32532

>  <SCORE.INTRA.DIHEDRAL.0>
5.02738

>  <SCORE.INTRA.POLAR>
0

>  <SCORE.INTRA.POLAR.0>
0

>  <SCORE.INTRA.REPUL>
0

>  <SCORE.INTRA.REPUL.0>
0

>  <SCORE.INTRA.VDW>
0.890932

>  <SCORE.INTRA.VDW.0>
-0.709724

>  <SCORE.INTRA.norm>
-0.0771727

>  <SCORE.RESTR>
0.0101772

>  <SCORE.RESTR.CAVITY>
0.0101772

>  <SCORE.RESTR.norm>
0.00101772

>  <SCORE.SYSTEM>
-9.75381

>  <SCORE.SYSTEM.CONST>
0

>  <SCORE.SYSTEM.DIHEDRAL>
2.09577

>  <SCORE.SYSTEM.POLAR>
-2.99582

>  <SCORE.SYSTEM.REPUL>
0.000924663

>  <SCORE.SYSTEM.VDW>
-0.620521

>  <SCORE.SYSTEM.norm>
-0.975381

>  <SCORE.heavy>
10

>  <SCORE.norm>
-1.62988

$$$$

  rDOCK(R)          3D
libRbt.so/2013.1/901 2013/11/27
 14 14  0  0  0  0  0  0  0  0999 V2000
   24.6493   25.7671   19.7213 C   0  0  0  0  0  0
   23.4553   25.0584   19.5064 O   0  0  0  0  0  0
   25.7306   24.8793   19.9247 O   0  0  0  0  0  0
   26.8173   25.3454   19.1524 C   0  0  0  0  0  0
   28.0969   25.3550   19.9980 C   0  0  0  0  0  0
   27.8685   25.9965   21.2235 O   0  0  0  0  0  0
   26.4809   26.7339   18.6149 C   0  0  0  0  0  0
   27.0598   26.9402   17.3522 O   0  0  0  0  0  0
   24.9738   26.7035   18.5612 C   0  0  0  0  0  0
   24.5242   26.1585   17.3443 O   0  0  0  0  0  0
   22.7338   25.7271   19.3707 H   0  0  0  0  0  0
   27.6674   26.9461   21.0142 H   0  0  0  0  0  0
   26.7245   26.2110   16.7680 H   0  0  0  0  0  0
   24.7122   26.8345   16.6421 H   0  0  0  0  0  0
  1  2  1  0  0  0
  1  3  1  0  0  0
  3  4  1  0  0  0
  4  5  1  0  0  0
  5  6  1  0  0  0
  4  7  1  0  0  0
  7  8  1  0  0  0
  7  9  1  0  0  0
  9 10  1  0  0  0
  9  1  1  0  0  0
  2 11  1  0  0  0
  6 12  1  0  0  0
  8 13  1  0  0  0
 10 14  1  0  0  0
M  END
>  <CHROM.0>
-166.52776219,-57.21794170,-48.08886306,-176.82749935,-176.91562580,71.27040536
65.62085736

>  <CHROM.1>
179.97101570,-49.49990164,-65.02534073,56.97553226,176.54770855,25.94274773
25.89590665,19.12016182,2.70333458,-0.19540810,-1.12697286

>  <Name>

>  <RI>
224

>  <Rbt.Current_Directory>
/extra/banzai2/j5wagner/CELPP/2016_10_17_rdock_implementation/normal_run/tutorialVideo/tutorial_rdock_implementation/full_week_run/4-docking/5m93/hiResHolo_1ogw_docking

>  <Rbt.Executable>
rbdock ($Id: //depot/dev/client3/rdock/2013.1/src/exe/rbdock.cxx#4 $)

>  <Rbt.Library>
libRbt.so (2013.1, Build901 2013/11/27)

>  <Rbt.Parameter_File>
/home/j5wagner/env_00/source/rDock/rDock_2013.1_src//data/scripts/dock.prm

>  <Rbt.Receptor>
/extra/banzai2/j5wagner/CELPP/2016_10_17_rdock_implementation/normal_run/tutorialVideo/tutorial_rdock_implementation/full_week_run/4-docking/5m93/hiResHolo_1ogw_tech_prep/rDockGridGenInput.prm

>  <SCORE>
-21.8423

>  <SCORE.INTER>
-11.1239

>  <SCORE.INTER.CONST>
1

>  <SCORE.INTER.POLAR>
-0.929222

>  <SCORE.INTER.REPUL>
0

>  <SCORE.INTER.ROT>
1

>  <SCORE.INTER.VDW>
-14.3645

>  <SCORE.INTER.norm>
-1.11239

>  <SCORE.INTRA>
-1.49976

>  <SCORE.INTRA.DIHEDRAL>
-4.06258

>  <SCORE.INTRA.DIHEDRAL.0>
5.02738

>  <SCORE.INTRA.POLAR>
0

>  <SCORE.INTRA.POLAR.0>
0

>  <SCORE.INTRA.REPUL>
0

>  <SCORE.INTRA.REPUL.0>
0

>  <SCORE.INTRA.VDW>
0.531531

>  <SCORE.INTRA.VDW.0>
-0.709724

>  <SCORE.INTRA.norm>
-0.149976

>  <SCORE.RESTR>
0

>  <SCORE.RESTR.CAVITY>
0

>  <SCORE.RESTR.norm>
0

>  <SCORE.SYSTEM>
-9.21864

>  <SCORE.SYSTEM.CONST>
0

>  <SCORE.SYSTEM.DIHEDRAL>
1.61545

>  <SCORE.SYSTEM.POLAR>
-2.85908

>  <SCORE.SYSTEM.VDW>
-0.305483

>  <SCORE.SYSTEM.norm>
-0.921864

>  <SCORE.heavy>
10

>  <SCORE.norm>
-2.18423

$$$$

  rDOCK(R)          3D
libRbt.so/2013.1/901 2013/11/27
 14 14  0  0  0  0  0  0  0  0999 V2000
   27.1318   26.0895   19.1489 C   0  0  0  0  0  0
   27.9782   25.0562   19.5848 O   0  0  0  0  0  0
   27.1925   26.2291   17.7433 O   0  0  0  0  0  0
   25.8685   26.3594   17.2693 C   0  0  0  0  0  0
   25.7770   27.5286   16.2808 C   0  0  0  0  0  0
   26.2984   28.6965   16.8550 O   0  0  0  0  0  0
   24.9341   26.5486   18.4613 C   0  0  0  0  0  0
   23.6799   25.9659   18.2170 O   0  0  0  0  0  0
   25.6845   25.8588   19.5732 C   0  0  0  0  0  0
   25.3901   24.4831   19.6016 O   0  0  0  0  0  0
   27.9211   25.0241   20.5757 H   0  0  0  0  0  0
   25.7389   28.8963   17.6506 H   0  0  0  0  0  0
   23.8456   24.9995   18.0622 H   0  0  0  0  0  0
   25.6140   24.1248   18.7034 H   0  0  0  0  0  0
  1  2  1  0  0  0
  1  3  1  0  0  0
  3  4  1  0  0  0
  4  5  1  0  0  0
  5  6  1  0  0  0
  4  7  1  0  0  0
  7  8  1  0  0  0
  7  9  1  0  0  0
  9 10  1  0  0  0
  9  1  1  0  0  0
  2 11  1  0  0  0
  6 12  1  0  0  0
  8 13  1  0  0  0
 10 14  1  0  0  0
M  END
>  <CHROM.0>
-44.36561314,172.62290687,-166.05878518,-56.21358632,-11.77439006,71.02628326
64.28945262

>  <CHROM.1>
178.01959516,-53.09102632,-61.44464076,60.11731097,-55.15795430,25.99764346
26.25656602,18.28548599,-1.39715600,-0.09587382,-0.76064603

>  <Name>

>  <RI>
224

>  <Rbt.Current_Directory>
/extra/banzai2/j5wagner/CELPP/2016_10_17_rdock_implementation/normal_run/tutorialVideo/tutorial_rdock_implementation/full_week_run/4-docking/5m93/hiResHolo_1ogw_docking

>  <Rbt.Executable>
rbdock ($Id: //depot/dev/client3/rdock/2013.1/src/exe/rbdock.cxx#4 $)

>  <Rbt.Library>
libRbt.so (2013.1, Build901 2013/11/27)

>  <Rbt.Parameter_File>
/home/j5wagner/env_00/source/rDock/rDock_2013.1_src//data/scripts/dock.prm

>  <Rbt.Receptor>
/extra/banzai2/j5wagner/CELPP/2016_10_17_rdock_implementation/normal_run/tutorialVideo/tutorial_rdock_implementation/full_week_run/4-docking/5m93/hiResHolo_1ogw_tech_prep/rDockGridGenInput.prm

>  <SCORE>
-20.2396

>  <SCORE.INTER>
-8.15801

>  <SCORE.INTER.CONST>
1

>  <SCORE.INTER.POLAR>
0

>  <SCORE.INTER.REPUL>
0

>  <SCORE.INTER.ROT>
1

>  <SCORE.INTER.VDW>
-14.558

>  <SCORE.INTER.norm>
-0.815801

>  <SCORE.INTRA>
-1.20282

>  <SCORE.INTRA.DIHEDRAL>
-4.36428

>  <SCORE.INTRA.DIHEDRAL.0>
5.02738

>  <SCORE.INTRA.POLAR>
0

>  <SCORE.INTRA.POLAR.0>
0

>  <SCORE.INTRA.REPUL>
0

>  <SCORE.INTRA.REPUL.0>
0

>  <SCORE.INTRA.VDW>
0.979319

>  <SCORE.INTRA.VDW.0>
-0.709724

>  <SCORE.INTRA.norm>
-0.120282

>  <SCORE.RESTR>
0

>  <SCORE.RESTR.CAVITY>
0

>  <SCORE.RESTR.norm>
0

>  <SCORE.SYSTEM>
-10.8788

>  <SCORE.SYSTEM.CONST>
0

>  <SCORE.SYSTEM.DIHEDRAL>
2.20801

>  <SCORE.SYSTEM.POLAR>
-3.18912

>  <SCORE.SYSTEM.REPUL>
0.0341348

>  <SCORE.SYSTEM.VDW>
-1.31045

>  <SCORE.SYSTEM.norm>
-1.08788

>  <SCORE.heavy>
10

>  <SCORE.norm>
-2.02396

$$$$

  rDOCK(R)          3D
libRbt.so/2013.1/901 2013/11/27
 14 14  0  0  0  0  0  0  0  0999 V2000
   29.9403   26.0557   20.3618 C   0  0  0  0  0  0
   29.3967   26.3576   19.1019 O   0  0  0  0  0  0
   29.9006   27.1863   21.2099 O   0  0  0  0  0  0
   29.4298   26.7583   22.4708 C   0  0  0  0  0  0
   30.3212   27.3232   23.5838 C   0  0  0  0  0  0
   31.6745   27.1381   23.2680 O   0  0  0  0  0  0
   29.3928   25.2325   22.4917 C   0  0  0  0  0  0
   28.3335   24.7641   23.2857 O   0  0  0  0  0  0
   29.2147   24.8933   21.0327 C   0  0  0  0  0  0
   27.8527   24.8896   20.6793 O   0  0  0  0  0  0
   28.4262   26.5247   19.2299 H   0  0  0  0  0  0
   31.9741   27.9643   22.8057 H   0  0  0  0  0  0
   28.5639   24.9937   24.2237 H   0  0  0  0  0  0
   27.4826   25.7669   20.9599 H   0  0  0  0  0  0
  1  2  1  0  0  0
  1  3  1  0  0  0
  3  4  1  0  0  0
  4  5  1  0  0  0
  5  6  1  0  0  0
  4  7  1  0  0  0
  7  8  1  0  0  0
  7  9  1  0  0  0
  9 10  1  0  0  0
  9  1  1  0  0  0
  2 11  1  0  0  0
  6 12  1  0  0  0
  8 13  1  0  0  0
 10 14  1  0  0  0
M  END
>  <CHROM.0>
72.44517553,175.08415309,-168.97174353,64.44874859,-10.55492185,71.78903572
173.60683739

>  <CHROM.1>
-67.21957530,-46.82696314,92.81463360,-68.70017630,-58.16510648,29.52789501
26.07587293,21.73861081,-2.33154140,0.77029070,1.70354745

>  <Name>

>  <RI>
224

>  <Rbt.Current_Directory>
/extra/banzai2/j5wagner/CELPP/2016_10_17_rdock_implementation/normal_run/tutorialVideo/tutorial_rdock_implementation/full_week_run/4-docking/5m93/hiResHolo_1ogw_docking

>  <Rbt.Executable>
rbdock ($Id: //depot/dev/client3/rdock/2013.1/src/exe/rbdock.cxx#4 $)

>  <Rbt.Library>
libRbt.so (2013.1, Build901 2013/11/27)

>  <Rbt.Parameter_File>
/home/j5wagner/env_00/source/rDock/rDock_2013.1_src//data/scripts/dock.prm

>  <Rbt.Receptor>
/extra/banzai2/j5wagner/CELPP/2016_10_17_rdock_implementation/normal_run/tutorialVideo/tutorial_rdock_implementation/full_week_run/4-docking/5m93/hiResHolo_1ogw_tech_prep/rDockGridGenInput.prm

>  <SCORE>
-15.6883

>  <SCORE.INTER>
-6.48127

>  <SCORE.INTER.CONST>
1

>  <SCORE.INTER.POLAR>
-2.00964

>  <SCORE.INTER.REPUL>
0

>  <SCORE.INTER.ROT>
1

>  <SCORE.INTER.VDW>
-6.04848

>  <SCORE.INTER.norm>
-0.648127

>  <SCORE.INTRA>
0.863186

>  <SCORE.INTRA.DIHEDRAL>
0.68074

>  <SCORE.INTRA.DIHEDRAL.0>
5.02738

>  <SCORE.INTRA.POLAR>
0

>  <SCORE.INTRA.POLAR.0>
0

>  <SCORE.INTRA.REPUL>
0

>  <SCORE.INTRA.REPUL.0>
0

>  <SCORE.INTRA.VDW>
0.522816

>  <SCORE.INTRA.VDW.0>
-0.709724

>  <SCORE.INTRA.norm>
0.0863186

>  <SCORE.RESTR>
0

>  <SCORE.RESTR.CAVITY>
0

>  <SCORE.RESTR.norm>
0

>  <SCORE.SYSTEM>
-10.0702

>  <SCORE.SYSTEM.CONST>
0

>  <SCORE.SYSTEM.DIHEDRAL>
1.85846

>  <SCORE.SYSTEM.POLAR>
-3.14718

>  <SCORE.SYSTEM.REPUL>
0.0329943

>  <SCORE.SYSTEM.VDW>
-0.464

>  <SCORE.SYSTEM.norm>
-1.00702

>  <SCORE.heavy>
10

>  <SCORE.norm>
-1.56883

$$$$

  rDOCK(R)          3D
libRbt.so/2013.1/901 2013/11/27
 14 14  0  0  0  0  0  0  0  0999 V2000
   23.8461   25.8067   18.4512 C   0  0  0  0  0  0
   22.9024   25.7801   19.4917 O   0  0  0  0  0  0
   24.4107   27.0961   18.3181 O   0  0  0  0  0  0
   25.8069   26.9385   18.1754 C   0  0  0  0  0  0
   26.3159   27.7952   17.0094 C   0  0  0  0  0  0
   26.0805   29.1540   17.2616 O   0  0  0  0  0  0
   26.1179   25.4582   17.9710 C   0  0  0  0  0  0
   27.3558   25.1191   18.5410 O   0  0  0  0  0  0
   24.9594   24.7855   18.6643 C   0  0  0  0  0  0
   25.2220   24.6184   20.0365 O   0  0  0  0  0  0
   22.2090   26.4590   19.2807 H   0  0  0  0  0  0
   26.4374   29.6540   16.4815 H   0  0  0  0  0  0
   28.0363   25.6824   18.0881 H   0  0  0  0  0  0
   25.9416   23.9384   20.1086 H   0  0  0  0  0  0
  1  2  1  0  0  0
  1  3  1  0  0  0
  3  4  1  0  0  0
  4  5  1  0  0  0
  5  6  1  0  0  0
  4  7  1  0  0  0
  7  8  1  0  0  0
  7  9  1  0  0  0
  9 10  1  0  0  0
  9  1  1  0  0  0
  2 11  1  0  0  0
  6 12  1  0  0  0
  8 13  1  0  0  0
 10 14  1  0  0  0
M  END
>  <CHROM.0>
-164.93841549,-56.35515204,71.76323354,-55.16725982,-8.04542398,72.31341402
-53.92119729

>  <CHROM.1>
58.15738344,62.11381046,179.43883896,-59.75386509,179.28538845,25.30741087
26.28007327,18.41889496,2.02116244,-0.24698290,2.68591374

>  <Name>

>  <RI>
224

>  <Rbt.Current_Directory>
/extra/banzai2/j5wagner/CELPP/2016_10_17_rdock_implementation/normal_run/tutorialVideo/tutorial_rdock_implementation/full_week_run/4-docking/5m93/hiResHolo_1ogw_docking

>  <Rbt.Executable>
rbdock ($Id: //depot/dev/client3/rdock/2013.1/src/exe/rbdock.cxx#4 $)

>  <Rbt.Library>
libRbt.so (2013.1, Build901 2013/11/27)

>  <Rbt.Parameter_File>
/home/j5wagner/env_00/source/rDock/rDock_2013.1_src//data/scripts/dock.prm

>  <Rbt.Receptor>
/extra/banzai2/j5wagner/CELPP/2016_10_17_rdock_implementation/normal_run/tutorialVideo/tutorial_rdock_implementation/full_week_run/4-docking/5m93/hiResHolo_1ogw_tech_prep/rDockGridGenInput.prm

>  <SCORE>
-24.5548

>  <SCORE.INTER>
-12.69

>  <SCORE.INTER.CONST>
1

>  <SCORE.INTER.POLAR>
-1.07703

>  <SCORE.INTER.REPUL>
0.000976865

>  <SCORE.INTER.ROT>
1

>  <SCORE.INTER.VDW>
-15.4329

>  <SCORE.INTER.norm>
-1.269

>  <SCORE.INTRA>
-2.14536

>  <SCORE.INTRA.DIHEDRAL>
-4.63385

>  <SCORE.INTRA.DIHEDRAL.0>
5.02738

>  <SCORE.INTRA.POLAR>
0

>  <SCORE.INTRA.POLAR.0>
0

>  <SCORE.INTRA.REPUL>
0

>  <SCORE.INTRA.REPUL.0>
0

>  <SCORE.INTRA.VDW>
0.171559

>  <SCORE.INTRA.VDW.0>
-0.709724

>  <SCORE.INTRA.norm>
-0.214536

>  <SCORE.RESTR>
0

>  <SCORE.RESTR.CAVITY>
0

>  <SCORE.RESTR.norm>
0

>  <SCORE.SYSTEM>
-9.71952

>  <SCORE.SYSTEM.CONST>
0

>  <SCORE.SYSTEM.DIHEDRAL>
1.98785

>  <SCORE.SYSTEM.POLAR>
-3.33086

>  <SCORE.SYSTEM.REPUL>
0.0276569

>  <SCORE.SYSTEM.VDW>
0.473199

>  <SCORE.SYSTEM.norm>
-0.971952

>  <SCORE.heavy>
10

>  <SCORE.norm>
-2.45548

$$$$

  rDOCK(R)          3D
libRbt.so/2013.1/901 2013/11/27
 14 14  0  0  0  0  0  0  0  0999 V2000
   26.4353   27.9552   16.3378 C   0  0  0  0  0  0
   26.3034   27.7327   17.7187 O   0  0  0  0  0  0
   25.2121   27.7137   15.6711 O   0  0  0  0  0  0
   25.0031   28.7756   14.7636 C   0  0  0  0  0  0
   24.5948   28.2223   13.3926 C   0  0  0  0  0  0
   24.1955   29.2642   12.5439 O   0  0  0  0  0  0
   26.2769   29.6128   14.6822 C   0  0  0  0  0  0
   25.9775   30.9671   14.4620 O   0  0  0  0  0  0
   26.9083   29.3729   16.0309 C   0  0  0  0  0  0
   26.4126   30.2783   16.9872 O   0  0  0  0  0  0
   26.0177   26.7895   17.8412 H   0  0  0  0  0  0
   23.3625   29.6422   12.9302 H   0  0  0  0  0  0
   25.5463   31.0169   13.5692 H   0  0  0  0  0  0
   25.4234   30.1964   16.9718 H   0  0  0  0  0  0
  1  2  1  0  0  0
  1  3  1  0  0  0
  3  4  1  0  0  0
  4  5  1  0  0  0
  5  6  1  0  0  0
  4  7  1  0  0  0
  7  8  1  0  0  0
  7  9  1  0  0  0
  9 10  1  0  0  0
  9  1  1  0  0  0
  2 11  1  0  0  0
  6 12  1  0  0  0
  8 13  1  0  0  0
 10 14  1  0  0  0
M  END
>  <CHROM.0>
-168.63107247,172.12086682,71.46624850,-55.71105192,-14.67581926,72.26875912
171.31870724

>  <CHROM.1>
59.02961250,171.32550439,-66.24976307,-64.29863100,-57.35208861,25.69591357
29.01567699,15.26990619,0.70902029,1.00429446,2.52816621

>  <Name>

>  <RI>
224

>  <Rbt.Current_Directory>
/extra/banzai2/j5wagner/CELPP/2016_10_17_rdock_implementation/normal_run/tutorialVideo/tutorial_rdock_implementation/full_week_run/4-docking/5m93/hiResHolo_1ogw_docking

>  <Rbt.Executable>
rbdock ($Id: //depot/dev/client3/rdock/2013.1/src/exe/rbdock.cxx#4 $)

>  <Rbt.Library>
libRbt.so (2013.1, Build901 2013/11/27)

>  <Rbt.Parameter_File>
/home/j5wagner/env_00/source/rDock/rDock_2013.1_src//data/scripts/dock.prm

>  <Rbt.Receptor>
/extra/banzai2/j5wagner/CELPP/2016_10_17_rdock_implementation/normal_run/tutorialVideo/tutorial_rdock_implementation/full_week_run/4-docking/5m93/hiResHolo_1ogw_tech_prep/rDockGridGenInput.prm

>  <SCORE>
-20.6254

>  <SCORE.INTER>
-8.31851

>  <SCORE.INTER.CONST>
1

>  <SCORE.INTER.POLAR>
-0.915166

>  <SCORE.INTER.REPUL>
0.000228647

>  <SCORE.INTER.ROT>
1

>  <SCORE.INTER.VDW>
-11.6081

>  <SCORE.INTER.norm>
-0.831851

>  <SCORE.INTRA>
-1.67639

>  <SCORE.INTRA.DIHEDRAL>
-4.08361

>  <SCORE.INTRA.DIHEDRAL.0>
5.02738

>  <SCORE.INTRA.POLAR>
-0.0397898

>  <SCORE.INTRA.POLAR.0>
0

>  <SCORE.INTRA.REPUL>
0

>  <SCORE.INTRA.REPUL.0>
0

>  <SCORE.INTRA.VDW>
0.500702

>  <SCORE.INTRA.VDW.0>
-0.709724

>  <SCORE.INTRA.norm>
-0.167639

>  <SCORE.RESTR>
0

>  <SCORE.RESTR.CAVITY>
0

>  <SCORE.RESTR.norm>
0

>  <SCORE.SYSTEM>
-10.6305

>  <SCORE.SYSTEM.CONST>
0

>  <SCORE.SYSTEM.DIHEDRAL>
2.36759

>  <SCORE.SYSTEM.POLAR>
-3.32233

>  <SCORE.SYSTEM.REPUL>
0.039913

>  <SCORE.SYSTEM.VDW>
-0.717907

>  <SCORE.SYSTEM.norm>
-1.06305

>  <SCORE.heavy>
10

>  <SCORE.norm>
-2.06254

$$$$

  rDOCK(R)          3D
libRbt.so/2013.1/901 2013/11/27
 14 14  0  0  0  0  0  0  0  0999 V2000
   30.0671   27.1891   23.2920 C   0  0  0  0  0  0
   31.0256   28.1145   23.7379 O   0  0  0  0  0  0
   29.9355   27.2410   21.8852 O   0  0  0  0  0  0
   29.9154   25.9116   21.4087 C   0  0  0  0  0  0
   28.7660   25.7289   20.4097 C   0  0  0  0  0  0
   27.5437   26.0772   21.0014 O   0  0  0  0  0  0
   29.7908   24.9630   22.5981 C   0  0  0  0  0  0
   30.4738   23.7597   22.3577 O   0  0  0  0  0  0
   30.4087   25.7641   23.7168 C   0  0  0  0  0  0
   31.8032   25.5803   23.7572 O   0  0  0  0  0  0
   31.8017   28.0584   23.1209 H   0  0  0  0  0  0
   27.5713   27.0579   21.1546 H   0  0  0  0  0  0
   30.3742   23.2122   23.1798 H   0  0  0  0  0  0
   31.9591   24.6383   24.0285 H   0  0  0  0  0  0
  1  2  1  0  0  0
  1  3  1  0  0  0
  3  4  1  0  0  0
  4  5  1  0  0  0
  5  6  1  0  0  0
  4  7  1  0  0  0
  7  8  1  0  0  0
  7  9  1  0  0  0
  9 10  1  0  0  0
  9  1  1  0  0  0
  2 11  1  0  0  0
  6 12  1  0  0  0
  8 13  1  0  0  0
 10 14  1  0  0  0
M  END
>  <CHROM.0>
-162.19528018,173.64089095,-70.31565788,63.71968995,-175.31672646,-173.26933294
174.01976635

>  <CHROM.1>
-43.27642941,-56.69929830,67.82895973,178.12720243,-179.40410048,29.99527614
26.03514952,22.42825781,0.31544183,-0.75993520,0.15915420

>  <Name>

>  <RI>
224

>  <Rbt.Current_Directory>
/extra/banzai2/j5wagner/CELPP/2016_10_17_rdock_implementation/normal_run/tutorialVideo/tutorial_rdock_implementation/full_week_run/4-docking/5m93/hiResHolo_1ogw_docking

>  <Rbt.Executable>
rbdock ($Id: //depot/dev/client3/rdock/2013.1/src/exe/rbdock.cxx#4 $)

>  <Rbt.Library>
libRbt.so (2013.1, Build901 2013/11/27)

>  <Rbt.Parameter_File>
/home/j5wagner/env_00/source/rDock/rDock_2013.1_src//data/scripts/dock.prm

>  <Rbt.Receptor>
/extra/banzai2/j5wagner/CELPP/2016_10_17_rdock_implementation/normal_run/tutorialVideo/tutorial_rdock_implementation/full_week_run/4-docking/5m93/hiResHolo_1ogw_tech_prep/rDockGridGenInput.prm

>  <SCORE>
-24.0193

>  <SCORE.INTER>
-14.9512

>  <SCORE.INTER.CONST>
1

>  <SCORE.INTER.POLAR>
-3.51964

>  <SCORE.INTER.REPUL>
0.235627

>  <SCORE.INTER.ROT>
1

>  <SCORE.INTER.VDW>
-10.5626

>  <SCORE.INTER.norm>
-1.49512

>  <SCORE.INTRA>
-1.45252

>  <SCORE.INTRA.DIHEDRAL>
-3.02816

>  <SCORE.INTRA.DIHEDRAL.0>
5.02738

>  <SCORE.INTRA.POLAR>
0

>  <SCORE.INTRA.POLAR.0>
0

>  <SCORE.INTRA.REPUL>
0

>  <SCORE.INTRA.REPUL.0>
0

>  <SCORE.INTRA.VDW>
0.0615559

>  <SCORE.INTRA.VDW.0>
-0.709724

>  <SCORE.INTRA.norm>
-0.145252

>  <SCORE.RESTR>
0.239473

>  <SCORE.RESTR.CAVITY>
0.239473

>  <SCORE.RESTR.norm>
0.0239473

>  <SCORE.SYSTEM>
-7.85506

>  <SCORE.SYSTEM.CONST>
0

>  <SCORE.SYSTEM.DIHEDRAL>
1.6497

>  <SCORE.SYSTEM.POLAR>
-2.51691

>  <SCORE.SYSTEM.REPUL>
0.0317016

>  <SCORE.SYSTEM.VDW>
-0.280918

>  <SCORE.SYSTEM.norm>
-0.785506

>  <SCORE.heavy>
10

>  <SCORE.norm>
-2.40193

$$$$

  rDOCK(R)          3D
libRbt.so/2013.1/901 2013/11/27
 14 14  0  0  0  0  0  0  0  0999 V2000
   30.0379   26.8084   23.4247 C   0  0  0  0  0  0
   31.1167   27.5153   23.9818 O   0  0  0  0  0  0
   29.7263   27.3009   22.1366 O   0  0  0  0  0  0
   29.5389   26.1880   21.2874 C   0  0  0  0  0  0
   28.2570   26.3653   20.4642 C   0  0  0  0  0  0
   28.1262   25.3258   19.5326 O   0  0  0  0  0  0
   29.4980   24.9206   22.1370 C   0  0  0  0  0  0
   30.0464   23.8298   21.4430 O   0  0  0  0  0  0
   30.3193   25.3112   23.3404 C   0  0  0  0  0  0
   31.6880   25.0766   23.1136 O   0  0  0  0  0  0
   30.8607   28.4744   24.0087 H   0  0  0  0  0  0
   28.7452   25.5346   18.7849 H   0  0  0  0  0  0
   29.5928   23.8028   20.5604 H   0  0  0  0  0  0
   31.8053   24.0919   23.0696 H   0  0  0  0  0  0
  1  2  1  0  0  0
  1  3  1  0  0  0
  3  4  1  0  0  0
  4  5  1  0  0  0
  5  6  1  0  0  0
  4  7  1  0  0  0
  7  8  1  0  0  0
  7  9  1  0  0  0
  9 10  1  0  0  0
  9  1  1  0  0  0
  2 11  1  0  0  0
  6 12  1  0  0  0
  8 13  1  0  0  0
 10 14  1  0  0  0
M  END
>  <CHROM.0>
-164.65818390,174.22676273,-161.31606266,-57.84938835,-10.07407788,71.39782663
63.78829921

>  <CHROM.1>
57.85312180,174.65335511,-77.62023314,-51.16746307,179.97094442,29.86632947
25.85173308,22.05792003,0.56668978,-0.85381821,0.37507902

>  <Name>

>  <RI>
224

>  <Rbt.Current_Directory>
/extra/banzai2/j5wagner/CELPP/2016_10_17_rdock_implementation/normal_run/tutorialVideo/tutorial_rdock_implementation/full_week_run/4-docking/5m93/hiResHolo_1ogw_docking

>  <Rbt.Executable>
rbdock ($Id: //depot/dev/client3/rdock/2013.1/src/exe/rbdock.cxx#4 $)

>  <Rbt.Library>
libRbt.so (2013.1, Build901 2013/11/27)

>  <Rbt.Parameter_File>
/home/j5wagner/env_00/source/rDock/rDock_2013.1_src//data/scripts/dock.prm

>  <Rbt.Receptor>
/extra/banzai2/j5wagner/CELPP/2016_10_17_rdock_implementation/normal_run/tutorialVideo/tutorial_rdock_implementation/full_week_run/4-docking/5m93/hiResHolo_1ogw_tech_prep/rDockGridGenInput.prm

>  <SCORE>
-18.414

>  <SCORE.INTER>
-6.15797

>  <SCORE.INTER.CONST>
1

>  <SCORE.INTER.POLAR>
-2.03459

>  <SCORE.INTER.REPUL>
0.142943

>  <SCORE.INTER.ROT>
1

>  <SCORE.INTER.VDW>
-6.35507

>  <SCORE.INTER.norm>
-0.615797

>  <SCORE.INTRA>
-1.56038

>  <SCORE.INTRA.DIHEDRAL>
-2.75015

>  <SCORE.INTRA.DIHEDRAL.0>
5.02738

>  <SCORE.INTRA.POLAR>
-0.133594

>  <SCORE.INTRA.POLAR.0>
0

>  <SCORE.INTRA.REPUL>
0

>  <SCORE.INTRA.REPUL.0>
0

>  <SCORE.INTRA.VDW>
0.268913

>  <SCORE.INTRA.VDW.0>
-0.709724

>  <SCORE.INTRA.norm>
-0.156038

>  <SCORE.RESTR>
0.0657417

>  <SCORE.RESTR.CAVITY>
0.0657417

>  <SCORE.RESTR.norm>
0.00657417

>  <SCORE.SYSTEM>
-10.7614

>  <SCORE.SYSTEM.CONST>
0

>  <SCORE.SYSTEM.DIHEDRAL>
2.36454

>  <SCORE.SYSTEM.POLAR>
-3.22411

>  <SCORE.SYSTEM.REPUL>
0.0312076

>  <SCORE.SYSTEM.VDW>
-1.1377

>  <SCORE.SYSTEM.norm>
-1.07614

>  <SCORE.heavy>
10

>  <SCORE.norm>
-1.8414

$$$$

  rDOCK(R)          3D
libRbt.so/2013.1/901 2013/11/27
 14 14  0  0  0  0  0  0  0  0999 V2000
   24.6844   26.2805   18.2981 C   0  0  0  0  0  0
   24.1265   26.0226   19.5614 O   0  0  0  0  0  0
   24.8953   27.6666   18.1157 O   0  0  0  0  0  0
   26.1837   27.8337   17.5617 C   0  0  0  0  0  0
   26.1234   28.8028   16.3744 C   0  0  0  0  0  0
   26.1260   30.1301   16.8259 O   0  0  0  0  0  0
   26.7256   26.4667   17.1524 C   0  0  0  0  0  0
   28.1201   26.4092   17.3086 O   0  0  0  0  0  0
   26.0005   25.5365   18.0928 C   0  0  0  0  0  0
   26.6936   25.4110   19.3109 O   0  0  0  0  0  0
   23.9835   25.0421   19.6279 H   0  0  0  0  0  0
   27.0180   30.2907   17.2313 H   0  0  0  0  0  0
   28.4017   25.5150   16.9821 H   0  0  0  0  0  0
   26.1190   24.8685   19.9117 H   0  0  0  0  0  0
  1  2  1  0  0  0
  1  3  1  0  0  0
  3  4  1  0  0  0
  4  5  1  0  0  0
  5  6  1  0  0  0
  4  7  1  0  0  0
  7  8  1  0  0  0
  7  9  1  0  0  0
  9 10  1  0  0  0
  9  1  1  0  0  0
  2 11  1  0  0  0
  6 12  1  0  0  0
  8 13  1  0  0  0
 10 14  1  0  0  0
M  END
>  <CHROM.0>
-46.71184254,173.12931658,71.84918682,65.10207446,-179.38452372,-170.51515689
64.25176540

>  <CHROM.1>
178.87887688,81.36611554,67.12407036,-177.20260600,62.39904532,25.98245295
27.05800447,17.90191439,1.77572738,-0.41307787,2.66596026

>  <Name>

>  <RI>
224

>  <Rbt.Current_Directory>
/extra/banzai2/j5wagner/CELPP/2016_10_17_rdock_implementation/normal_run/tutorialVideo/tutorial_rdock_implementation/full_week_run/4-docking/5m93/hiResHolo_1ogw_docking

>  <Rbt.Executable>
rbdock ($Id: //depot/dev/client3/rdock/2013.1/src/exe/rbdock.cxx#4 $)

>  <Rbt.Library>
libRbt.so (2013.1, Build901 2013/11/27)

>  <Rbt.Parameter_File>
/home/j5wagner/env_00/source/rDock/rDock_2013.1_src//data/scripts/dock.prm

>  <Rbt.Receptor>
/extra/banzai2/j5wagner/CELPP/2016_10_17_rdock_implementation/normal_run/tutorialVideo/tutorial_rdock_implementation/full_week_run/4-docking/5m93/hiResHolo_1ogw_tech_prep/rDockGridGenInput.prm

>  <SCORE>
-20.9132

>  <SCORE.INTER>
-9.57174

>  <SCORE.INTER.CONST>
1

>  <SCORE.INTER.POLAR>
-0.77864

>  <SCORE.INTER.REPUL>
0

>  <SCORE.INTER.ROT>
1

>  <SCORE.INTER.VDW>
-13.3244

>  <SCORE.INTER.norm>
-0.957174

>  <SCORE.INTRA>
-1.07273

>  <SCORE.INTRA.DIHEDRAL>
-2.87369

>  <SCORE.INTRA.DIHEDRAL.0>
5.02738

>  <SCORE.INTRA.POLAR>
0

>  <SCORE.INTRA.POLAR.0>
0

>  <SCORE.INTRA.REPUL>
0

>  <SCORE.INTRA.REPUL.0>
0

>  <SCORE.INTRA.VDW>
0.364112

>  <SCORE.INTRA.VDW.0>
-0.709724

>  <SCORE.INTRA.norm>
-0.107273

>  <SCORE.RESTR>
0

>  <SCORE.RESTR.CAVITY>
0

>  <SCORE.RESTR.norm>
0

>  <SCORE.SYSTEM>
-10.2687

>  <SCORE.SYSTEM.CONST>
0

>  <SCORE.SYSTEM.DIHEDRAL>
1.57858

>  <SCORE.SYSTEM.POLAR>
-3.02054

>  <SCORE.SYSTEM.REPUL>
0.0189085

>  <SCORE.SYSTEM.VDW>
-0.882689

>  <SCORE.SYSTEM.norm>
-1.02687

>  <SCORE.heavy>
10

>  <SCORE.norm>
-2.09132

$$$$

  rDOCK(R)          3D
libRbt.so/2013.1/901 2013/11/27
 14 14  0  0  0  0  0  0  0  0999 V2000
   23.6038   25.8003   18.4872 C   0  0  0  0  0  0
   22.7440   25.9809   19.5837 O   0  0  0  0  0  0
   24.3168   26.9886   18.2071 O   0  0  0  0  0  0
   25.6671   26.6358   17.9907 C   0  0  0  0  0  0
   26.1934   27.3235   16.7247 C   0  0  0  0  0  0
   27.4232   26.7695   16.3425 O   0  0  0  0  0  0
   25.7708   25.1158   17.8966 C   0  0  0  0  0  0
   26.9941   24.6603   18.4146 O   0  0  0  0  0  0
   24.5905   24.6596   18.7176 C   0  0  0  0  0  0
   24.9305   24.5665   20.0798 O   0  0  0  0  0  0
   22.0584   26.6476   19.3163 H   0  0  0  0  0  0
   28.0325   26.8656   17.1206 H   0  0  0  0  0  0
   26.9280   23.6708   18.4596 H   0  0  0  0  0  0
   25.3771   25.4195   20.3214 H   0  0  0  0  0  0
  1  2  1  0  0  0
  1  3  1  0  0  0
  3  4  1  0  0  0
  4  5  1  0  0  0
  5  6  1  0  0  0
  4  7  1  0  0  0
  7  8  1  0  0  0
  7  9  1  0  0  0
  9 10  1  0  0  0
  9  1  1  0  0  0
  2 11  1  0  0  0
  6 12  1  0  0  0
  8 13  1  0  0  0
 10 14  1  0  0  0
M  END
>  <CHROM.0>
73.00716281,-58.38492364,71.26225673,-59.00195226,-172.20260188,71.58412186
-54.23349105

>  <CHROM.1>
65.10301325,-167.52640750,-56.71444857,170.83303496,-62.36661506,25.24581512
25.84896666,18.27718276,2.56663651,-0.39172408,2.49171368

>  <Name>

>  <RI>
224

>  <Rbt.Current_Directory>
/extra/banzai2/j5wagner/CELPP/2016_10_17_rdock_implementation/normal_run/tutorialVideo/tutorial_rdock_implementation/full_week_run/4-docking/5m93/hiResHolo_1ogw_docking

>  <Rbt.Executable>
rbdock ($Id: //depot/dev/client3/rdock/2013.1/src/exe/rbdock.cxx#4 $)

>  <Rbt.Library>
libRbt.so (2013.1, Build901 2013/11/27)

>  <Rbt.Parameter_File>
/home/j5wagner/env_00/source/rDock/rDock_2013.1_src//data/scripts/dock.prm

>  <Rbt.Receptor>
/extra/banzai2/j5wagner/CELPP/2016_10_17_rdock_implementation/normal_run/tutorialVideo/tutorial_rdock_implementation/full_week_run/4-docking/5m93/hiResHolo_1ogw_tech_prep/rDockGridGenInput.prm

>  <SCORE>
-19.1602

>  <SCORE.INTER>
-8.5716

>  <SCORE.INTER.CONST>
1

>  <SCORE.INTER.POLAR>
-1.07703

>  <SCORE.INTER.REPUL>
0.00234667

>  <SCORE.INTER.ROT>
1

>  <SCORE.INTER.VDW>
-11.3214

>  <SCORE.INTER.norm>
-0.85716

>  <SCORE.INTRA>
-0.807845

>  <SCORE.INTRA.DIHEDRAL>
-3.53161

>  <SCORE.INTRA.DIHEDRAL.0>
5.02738

>  <SCORE.INTRA.POLAR>
0

>  <SCORE.INTRA.POLAR.0>
0

>  <SCORE.INTRA.REPUL>
0

>  <SCORE.INTRA.REPUL.0>
0

>  <SCORE.INTRA.VDW>
0.95796

>  <SCORE.INTRA.VDW.0>
-0.709724

>  <SCORE.INTRA.norm>
-0.0807845

>  <SCORE.RESTR>
0

>  <SCORE.RESTR.CAVITY>
0

>  <SCORE.RESTR.norm>
0

>  <SCORE.SYSTEM>
-9.78071

>  <SCORE.SYSTEM.CONST>
0

>  <SCORE.SYSTEM.DIHEDRAL>
1.62118

>  <SCORE.SYSTEM.POLAR>
-3.29465

>  <SCORE.SYSTEM.VDW>
0.610526

>  <SCORE.SYSTEM.norm>
-0.978071

>  <SCORE.heavy>
10

>  <SCORE.norm>
-1.91602

$$$$

  rDOCK(R)          3D
libRbt.so/2013.1/901 2013/11/27
 14 14  0  0  0  0  0  0  0  0999 V2000
   30.4346   24.7879   21.1387 C   0  0  0  0  0  0
   31.1148   23.8228   21.9002 O   0  0  0  0  0  0
   29.2876   24.2296   20.5291 O   0  0  0  0  0  0
   28.2215   25.1376   20.7125 C   0  0  0  0  0  0
   27.4749   25.3455   19.3888 C   0  0  0  0  0  0
   26.8449   24.1580   18.9910 O   0  0  0  0  0  0
   28.7786   26.4480   21.2625 C   0  0  0  0  0  0
   27.8579   27.0656   22.1244 O   0  0  0  0  0  0
   30.0256   25.9937   21.9793 C   0  0  0  0  0  0
   29.7333   25.6013   23.2986 O   0  0  0  0  0  0
   31.7760   23.3852   21.3022 H   0  0  0  0  0  0
   26.3816   24.3549   18.1351 H   0  0  0  0  0  0
   27.0613   27.2835   21.5735 H   0  0  0  0  0  0
   29.6089   26.4347   23.8233 H   0  0  0  0  0  0
  1  2  1  0  0  0
  1  3  1  0  0  0
  3  4  1  0  0  0
  4  5  1  0  0  0
  5  6  1  0  0  0
  4  7  1  0  0  0
  7  8  1  0  0  0
  7  9  1  0  0  0
  9 10  1  0  0  0
  9  1  1  0  0  0
  2 11  1  0  0  0
  6 12  1  0  0  0
  8 13  1  0  0  0
 10 14  1  0  0  0
M  END
>  <CHROM.0>
70.69762880,-55.82914032,38.40806974,64.16788723,-167.78788132,72.06204475
-55.43635846

>  <CHROM.1>
90.02912571,65.74577890,179.95874142,-63.05009082,171.72120322,28.95907588
25.23426504,21.14629086,-0.56641414,0.55652452,-2.37565073

>  <Name>

>  <RI>
224

>  <Rbt.Current_Directory>
/extra/banzai2/j5wagner/CELPP/2016_10_17_rdock_implementation/normal_run/tutorialVideo/tutorial_rdock_implementation/full_week_run/4-docking/5m93/hiResHolo_1ogw_docking

>  <Rbt.Executable>
rbdock ($Id: //depot/dev/client3/rdock/2013.1/src/exe/rbdock.cxx#4 $)

>  <Rbt.Library>
libRbt.so (2013.1, Build901 2013/11/27)

>  <Rbt.Parameter_File>
/home/j5wagner/env_00/source/rDock/rDock_2013.1_src//data/scripts/dock.prm

>  <Rbt.Receptor>
/extra/banzai2/j5wagner/CELPP/2016_10_17_rdock_implementation/normal_run/tutorialVideo/tutorial_rdock_implementation/full_week_run/4-docking/5m93/hiResHolo_1ogw_tech_prep/rDockGridGenInput.prm

>  <SCORE>
-1.6019

>  <SCORE.INTER>
6.50003

>  <SCORE.INTER.CONST>
1

>  <SCORE.INTER.POLAR>
-0.65264

>  <SCORE.INTER.REPUL>
0

>  <SCORE.INTER.ROT>
1

>  <SCORE.INTER.VDW>
2.31901

>  <SCORE.INTER.norm>
0.650003

>  <SCORE.INTRA>
-0.208961

>  <SCORE.INTRA.DIHEDRAL>
-0.610847

>  <SCORE.INTRA.DIHEDRAL.0>
5.02738

>  <SCORE.INTRA.POLAR>
0

>  <SCORE.INTRA.POLAR.0>
0

>  <SCORE.INTRA.REPUL>
0

>  <SCORE.INTRA.REPUL.0>
0

>  <SCORE.INTRA.VDW>
0.0964618

>  <SCORE.INTRA.VDW.0>
-0.709724

>  <SCORE.INTRA.norm>
-0.0208961

>  <SCORE.RESTR>
0.05573

>  <SCORE.RESTR.CAVITY>
0.05573

>  <SCORE.RESTR.norm>
0.005573

>  <SCORE.SYSTEM>
-7.9487

>  <SCORE.SYSTEM.CONST>
0

>  <SCORE.SYSTEM.DIHEDRAL>
2.45496

>  <SCORE.SYSTEM.POLAR>
-2.95207

>  <SCORE.SYSTEM.VDW>
0.860855

>  <SCORE.SYSTEM.norm>
-0.79487

>  <SCORE.heavy>
10

>  <SCORE.norm>
-0.16019

$$$$

  rDOCK(R)          3D
libRbt.so/2013.1/901 2013/11/27
 14 14  0  0  0  0  0  0  0  0999 V2000
   26.0277   27.2409   17.7036 C   0  0  0  0  0  0
   26.8422   27.5308   16.5961 O   0  0  0  0  0  0
   24.8905   26.4987   17.3101 O   0  0  0  0  0  0
   24.7282   25.4433   18.2345 C   0  0  0  0  0  0
   23.2649   25.3613   18.6866 C   0  0  0  0  0  0
   22.8778   26.5558   19.3100 O   0  0  0  0  0  0
   25.6747   25.6679   19.4108 C   0  0  0  0  0  0
   26.1273   24.4461   19.9349 O   0  0  0  0  0  0
   26.7848   26.4737   18.7834 C   0  0  0  0  0  0
   27.7535   25.6322   18.2060 O   0  0  0  0  0  0
   27.1218   26.6648   16.1987 H   0  0  0  0  0  0
   23.4571   26.6598   20.1097 H   0  0  0  0  0  0
   25.3321   23.9964   20.3233 H   0  0  0  0  0  0
   28.2272   25.1860   18.9556 H   0  0  0  0  0  0
  1  2  1  0  0  0
  1  3  1  0  0  0
  3  4  1  0  0  0
  4  5  1  0  0  0
  5  6  1  0  0  0
  4  7  1  0  0  0
  7  8  1  0  0  0
  7  9  1  0  0  0
  9 10  1  0  0  0
  9  1  1  0  0  0
  2 11  1  0  0  0
  6 12  1  0  0  0
  8 13  1  0  0  0
 10 14  1  0  0  0
M  END
>  <CHROM.0>
-48.03019549,174.11115589,71.16173779,-56.96924799,-3.67006868,72.36633643
63.04163286

>  <CHROM.1>
-59.79498978,-60.50731524,-61.77375687,-66.06931861,178.26188882,25.51656926
26.07265743,18.41775772,0.41502762,0.10917973,-0.83013591

>  <Name>

>  <RI>
224

>  <Rbt.Current_Directory>
/extra/banzai2/j5wagner/CELPP/2016_10_17_rdock_implementation/normal_run/tutorialVideo/tutorial_rdock_implementation/full_week_run/4-docking/5m93/hiResHolo_1ogw_docking

>  <Rbt.Executable>
rbdock ($Id: //depot/dev/client3/rdock/2013.1/src/exe/rbdock.cxx#4 $)

>  <Rbt.Library>
libRbt.so (2013.1, Build901 2013/11/27)

>  <Rbt.Parameter_File>
/home/j5wagner/env_00/source/rDock/rDock_2013.1_src//data/scripts/dock.prm

>  <Rbt.Receptor>
/extra/banzai2/j5wagner/CELPP/2016_10_17_rdock_implementation/normal_run/tutorialVideo/tutorial_rdock_implementation/full_week_run/4-docking/5m93/hiResHolo_1ogw_tech_prep/rDockGridGenInput.prm

>  <SCORE>
-22.3524

>  <SCORE.INTER>
-9.2048

>  <SCORE.INTER.CONST>
1

>  <SCORE.INTER.POLAR>
-0.42393

>  <SCORE.INTER.REPUL>
0

>  <SCORE.INTER.ROT>
1

>  <SCORE.INTER.VDW>
-14.1634

>  <SCORE.INTER.norm>
-0.92048

>  <SCORE.INTRA>
-1.86454

>  <SCORE.INTRA.DIHEDRAL>
-4.46468

>  <SCORE.INTRA.DIHEDRAL.0>
5.02738

>  <SCORE.INTRA.POLAR>
0

>  <SCORE.INTRA.POLAR.0>
0

>  <SCORE.INTRA.REPUL>
0

>  <SCORE.INTRA.REPUL.0>
0

>  <SCORE.INTRA.VDW>
0.367799

>  <SCORE.INTRA.VDW.0>
-0.709724

>  <SCORE.INTRA.norm>
-0.186454

>  <SCORE.RESTR>
0

>  <SCORE.RESTR.CAVITY>
0

>  <SCORE.RESTR.norm>
0

>  <SCORE.SYSTEM>
-11.2831

>  <SCORE.SYSTEM.CONST>
0

>  <SCORE.SYSTEM.DIHEDRAL>
1.63297

>  <SCORE.SYSTEM.POLAR>
-3.31019

>  <SCORE.SYSTEM.REPUL>
0.0198103

>  <SCORE.SYSTEM.VDW>
-0.943957

>  <SCORE.SYSTEM.norm>
-1.12831

>  <SCORE.heavy>
10

>  <SCORE.norm>
-2.23524

$$$$

  rDOCK(R)          3D
libRbt.so/2013.1/901 2013/11/27
 14 14  0  0  0  0  0  0  0  0999 V2000
   30.1342   27.1494   23.4659 C   0  0  0  0  0  0
   31.1535   28.0828   23.7187 O   0  0  0  0  0  0
   29.7869   27.1439   22.0954 O   0  0  0  0  0  0
   29.6887   25.7960   21.6850 C   0  0  0  0  0  0
   28.3980   25.5835   20.8840 C   0  0  0  0  0  0
   28.4589   26.2747   19.6658 O   0  0  0  0  0  0
   29.7460   24.8992   22.9188 C   0  0  0  0  0  0
   30.3794   23.6801   22.6276 O   0  0  0  0  0  0
   30.5323   25.7400   23.8935 C   0  0  0  0  0  0
   31.9156   25.5439   23.7261 O   0  0  0  0  0  0
   31.8705   27.9276   23.0494 H   0  0  0  0  0  0
   27.6002   26.1025   19.1980 H   0  0  0  0  0  0
   30.3843   23.1584   23.4722 H   0  0  0  0  0  0
   32.1165   24.6301   24.0579 H   0  0  0  0  0  0
  1  2  1  0  0  0
  1  3  1  0  0  0
  3  4  1  0  0  0
  4  5  1  0  0  0
  5  6  1  0  0  0
  4  7  1  0  0  0
  7  8  1  0  0  0
  7  9  1  0  0  0
  9 10  1  0  0  0
  9  1  1  0  0  0
  2 11  1  0  0  0
  6 12  1  0  0  0
  8 13  1  0  0  0
 10 14  1  0  0  0
M  END
>  <CHROM.0>
-166.64113715,174.23739081,67.84696857,-55.49558160,-11.13450936,69.15145570
174.78844620

>  <CHROM.1>
-49.22370040,67.25314631,-179.77960139,179.60847436,177.47957798,30.05289380
25.98771447,22.44673854,0.11549934,-0.91305344,0.00495140

>  <Name>

>  <RI>
224

>  <Rbt.Current_Directory>
/extra/banzai2/j5wagner/CELPP/2016_10_17_rdock_implementation/normal_run/tutorialVideo/tutorial_rdock_implementation/full_week_run/4-docking/5m93/hiResHolo_1ogw_docking

>  <Rbt.Executable>
rbdock ($Id: //depot/dev/client3/rdock/2013.1/src/exe/rbdock.cxx#4 $)

>  <Rbt.Library>
libRbt.so (2013.1, Build901 2013/11/27)

>  <Rbt.Parameter_File>
/home/j5wagner/env_00/source/rDock/rDock_2013.1_src//data/scripts/dock.prm

>  <Rbt.Receptor>
/extra/banzai2/j5wagner/CELPP/2016_10_17_rdock_implementation/normal_run/tutorialVideo/tutorial_rdock_implementation/full_week_run/4-docking/5m93/hiResHolo_1ogw_tech_prep/rDockGridGenInput.prm

>  <SCORE>
-23.4383

>  <SCORE.INTER>
-11.4168

>  <SCORE.INTER.CONST>
1

>  <SCORE.INTER.POLAR>
-2.36939

>  <SCORE.INTER.REPUL>
0.231833

>  <SCORE.INTER.ROT>
1

>  <SCORE.INTER.VDW>
-10.92

>  <SCORE.INTER.norm>
-1.14168

>  <SCORE.INTRA>
-1.87587

>  <SCORE.INTRA.DIHEDRAL>
-3.89943

>  <SCORE.INTRA.DIHEDRAL.0>
5.02738

>  <SCORE.INTRA.POLAR>
0

>  <SCORE.INTRA.POLAR.0>
0

>  <SCORE.INTRA.REPUL>
0

>  <SCORE.INTRA.REPUL.0>
0

>  <SCORE.INTRA.VDW>
0.0738455

>  <SCORE.INTRA.VDW.0>
-0.709724

>  <SCORE.INTRA.norm>
-0.187587

>  <SCORE.RESTR>
0.313954

>  <SCORE.RESTR.CAVITY>
0.313954

>  <SCORE.RESTR.norm>
0.0313954

>  <SCORE.SYSTEM>
-10.4596

>  <SCORE.SYSTEM.CONST>
0

>  <SCORE.SYSTEM.DIHEDRAL>
1.50779

>  <SCORE.SYSTEM.POLAR>
-3.19788

>  <SCORE.SYSTEM.REPUL>
0.034022

>  <SCORE.SYSTEM.VDW>
-0.510758

>  <SCORE.SYSTEM.norm>
-1.04596

>  <SCORE.heavy>
10

>  <SCORE.norm>
-2.34383

$$$$

  rDOCK(R)          3D
libRbt.so/2013.1/901 2013/11/27
 14 14  0  0  0  0  0  0  0  0999 V2000
   29.9608   27.0733   23.2048 C   0  0  0  0  0  0
   30.9388   27.9025   23.7791 O   0  0  0  0  0  0
   29.8397   27.3252   21.8188 O   0  0  0  0  0  0
   29.7902   26.0767   21.1604 C   0  0  0  0  0  0
   28.6432   26.0650   20.1421 C   0  0  0  0  0  0
   27.4062   26.1367   20.7979 O   0  0  0  0  0  0
   29.6345   24.9742   22.2044 C   0  0  0  0  0  0
   30.2893   23.7996   21.7997 O   0  0  0  0  0  0
   30.2645   25.5947   23.4265 C   0  0  0  0  0  0
   31.6537   25.3718   23.4449 O   0  0  0  0  0  0
   31.7160   27.9164   23.1612 H   0  0  0  0  0  0
   26.7088   26.1295   20.0911 H   0  0  0  0  0  0
   30.0106   23.6329   20.8616 H   0  0  0  0  0  0
   31.7850   24.4013   23.6070 H   0  0  0  0  0  0
  1  2  1  0  0  0
  1  3  1  0  0  0
  3  4  1  0  0  0
  4  5  1  0  0  0
  5  6  1  0  0  0
  4  7  1  0  0  0
  7  8  1  0  0  0
  7  9  1  0  0  0
  9 10  1  0  0  0
  9  1  1  0  0  0
  2 11  1  0  0  0
  6 12  1  0  0  0
  8 13  1  0  0  0
 10 14  1  0  0  0
M  END
>  <CHROM.0>
-49.53882718,-58.01380301,61.24965097,63.96091418,-176.58886268,71.36447919
-55.54695977

>  <CHROM.1>
-43.08433663,-66.44906570,179.74912440,-48.11419149,179.05931869,29.85796492
26.02592453,22.17245074,0.36494742,-0.75730220,0.27975822

>  <Name>

>  <RI>
224

>  <Rbt.Current_Directory>
/extra/banzai2/j5wagner/CELPP/2016_10_17_rdock_implementation/normal_run/tutorialVideo/tutorial_rdock_implementation/full_week_run/4-docking/5m93/hiResHolo_1ogw_docking

>  <Rbt.Executable>
rbdock ($Id: //depot/dev/client3/rdock/2013.1/src/exe/rbdock.cxx#4 $)

>  <Rbt.Library>
libRbt.so (2013.1, Build901 2013/11/27)

>  <Rbt.Parameter_File>
/home/j5wagner/env_00/source/rDock/rDock_2013.1_src//data/scripts/dock.prm

>  <Rbt.Receptor>
/extra/banzai2/j5wagner/CELPP/2016_10_17_rdock_implementation/normal_run/tutorialVideo/tutorial_rdock_implementation/full_week_run/4-docking/5m93/hiResHolo_1ogw_tech_prep/rDockGridGenInput.prm

>  <SCORE>
-20.8115

>  <SCORE.INTER>
-10.6329

>  <SCORE.INTER.CONST>
1

>  <SCORE.INTER.POLAR>
-2.24466

>  <SCORE.INTER.REPUL>
0.0899682

>  <SCORE.INTER.ROT>
1

>  <SCORE.INTER.VDW>
-9.85093

>  <SCORE.INTER.norm>
-1.06329

>  <SCORE.INTRA>
-0.939224

>  <SCORE.INTRA.DIHEDRAL>
-2.54582

>  <SCORE.INTRA.DIHEDRAL.0>
5.02738

>  <SCORE.INTRA.POLAR>
0

>  <SCORE.INTRA.POLAR.0>
0

>  <SCORE.INTRA.REPUL>
0

>  <SCORE.INTRA.REPUL.0>
0

>  <SCORE.INTRA.VDW>
0.333687

>  <SCORE.INTRA.VDW.0>
-0.709724

>  <SCORE.INTRA.norm>
-0.0939224

>  <SCORE.RESTR>
0.0411259

>  <SCORE.RESTR.CAVITY>
0.0411259

>  <SCORE.RESTR.norm>
0.00411259

>  <SCORE.SYSTEM>
-9.28048

>  <SCORE.SYSTEM.CONST>
0

>  <SCORE.SYSTEM.DIHEDRAL>
1.06512

>  <SCORE.SYSTEM.POLAR>
-3.08391

>  <SCORE.SYSTEM.VDW>
0.672248

>  <SCORE.SYSTEM.norm>
-0.928048

>  <SCORE.heavy>
10

>  <SCORE.norm>
-2.08115

$$$$

  rDOCK(R)          3D
libRbt.so/2013.1/901 2013/11/27
 14 14  0  0  0  0  0  0  0  0999 V2000
   25.3661   26.9534   18.2531 C   0  0  0  0  0  0
   25.4640   26.8981   19.6536 O   0  0  0  0  0  0
   25.5494   28.2762   17.7887 O   0  0  0  0  0  0
   26.4246   28.2229   16.6816 C   0  0  0  0  0  0
   25.8649   29.0653   15.5284 C   0  0  0  0  0  0
   24.6528   28.5276   15.0734 O   0  0  0  0  0  0
   26.6200   26.7642   16.2770 C   0  0  0  0  0  0
   27.9134   26.5488   15.7739 O   0  0  0  0  0  0
   26.3758   26.0333   17.5737 C   0  0  0  0  0  0
   27.5570   25.9475   18.3335 O   0  0  0  0  0  0
   24.7437   27.4726   20.0242 H   0  0  0  0  0  0
   24.3501   29.1035   14.3233 H   0  0  0  0  0  0
   28.0082   27.1409   14.9827 H   0  0  0  0  0  0
   27.2858   25.6998   19.2557 H   0  0  0  0  0  0
  1  2  1  0  0  0
  1  3  1  0  0  0
  3  4  1  0  0  0
  4  5  1  0  0  0
  5  6  1  0  0  0
  4  7  1  0  0  0
  7  8  1  0  0  0
  7  9  1  0  0  0
  9 10  1  0  0  0
  9  1  1  0  0  0
  2 11  1  0  0  0
  6 12  1  0  0  0
  8 13  1  0  0  0
 10 14  1  0  0  0
M  END
>  <CHROM.0>
-166.70256432,-56.33902794,71.95840740,63.61287213,177.12246946,71.60893482
62.20674827

>  <CHROM.1>
61.13057809,-63.96955304,-179.11664796,-59.98485004,52.54546637,26.17932196
27.32791465,17.10751950,1.32653133,-0.66478942,1.96961657

>  <Name>

>  <RI>
224

>  <Rbt.Current_Directory>
/extra/banzai2/j5wagner/CELPP/2016_10_17_rdock_implementation/normal_run/tutorialVideo/tutorial_rdock_implementation/full_week_run/4-docking/5m93/hiResHolo_1ogw_docking

>  <Rbt.Executable>
rbdock ($Id: //depot/dev/client3/rdock/2013.1/src/exe/rbdock.cxx#4 $)

>  <Rbt.Library>
libRbt.so (2013.1, Build901 2013/11/27)

>  <Rbt.Parameter_File>
/home/j5wagner/env_00/source/rDock/rDock_2013.1_src//data/scripts/dock.prm

>  <Rbt.Receptor>
/extra/banzai2/j5wagner/CELPP/2016_10_17_rdock_implementation/normal_run/tutorialVideo/tutorial_rdock_implementation/full_week_run/4-docking/5m93/hiResHolo_1ogw_tech_prep/rDockGridGenInput.prm

>  <SCORE>
-22.1692

>  <SCORE.INTER>
-9.36487

>  <SCORE.INTER.CONST>
1

>  <SCORE.INTER.POLAR>
-0.860466

>  <SCORE.INTER.REPUL>
0

>  <SCORE.INTER.ROT>
1

>  <SCORE.INTER.VDW>
-12.8393

>  <SCORE.INTER.norm>
-0.936487

>  <SCORE.INTRA>
-2.10221

>  <SCORE.INTRA.DIHEDRAL>
-4.3476

>  <SCORE.INTRA.DIHEDRAL.0>
5.02738

>  <SCORE.INTRA.POLAR>
-0.0786394

>  <SCORE.INTRA.POLAR.0>
0

>  <SCORE.INTRA.REPUL>
0

>  <SCORE.INTRA.REPUL.0>
0

>  <SCORE.INTRA.VDW>
0.338958

>  <SCORE.INTRA.VDW.0>
-0.709724

>  <SCORE.INTRA.norm>
-0.210221

>  <SCORE.RESTR>
0

>  <SCORE.RESTR.CAVITY>
0

>  <SCORE.RESTR.norm>
0

>  <SCORE.SYSTEM>
-10.7021

>  <SCORE.SYSTEM.CONST>
0

>  <SCORE.SYSTEM.DIHEDRAL>
1.54546

>  <SCORE.SYSTEM.POLAR>
-3.29618

>  <SCORE.SYSTEM.VDW>
-0.267822

>  <SCORE.SYSTEM.norm>
-1.07021

>  <SCORE.heavy>
10

>  <SCORE.norm>
-2.21692

$$$$

  rDOCK(R)          3D
libRbt.so/2013.1/901 2013/11/27
 14 14  0  0  0  0  0  0  0  0999 V2000
   30.9202   26.2209   23.5620 C   0  0  0  0  0  0
   31.2770   27.4928   24.0406 O   0  0  0  0  0  0
   30.3024   25.4570   24.5787 O   0  0  0  0  0  0
   29.1640   24.8385   24.0164 C   0  0  0  0  0  0
   29.1285   23.3542   24.4013 C   0  0  0  0  0  0
   28.7107   23.2036   25.7311 O   0  0  0  0  0  0
   29.1943   25.0325   22.5027 C   0  0  0  0  0  0
   27.8949   25.1476   21.9825 O   0  0  0  0  0  0
   29.9901   26.3054   22.3556 C   0  0  0  0  0  0
   29.1560   27.4346   22.4515 O   0  0  0  0  0  0
   31.7644   27.9582   23.3112 H   0  0  0  0  0  0
   28.7101   22.2288   25.9202 H   0  0  0  0  0  0
   27.9935   25.2256   20.9977 H   0  0  0  0  0  0
   28.4645   27.3394   21.7457 H   0  0  0  0  0  0
  1  2  1  0  0  0
  1  3  1  0  0  0
  3  4  1  0  0  0
  4  5  1  0  0  0
  5  6  1  0  0  0
  4  7  1  0  0  0
  7  8  1  0  0  0
  7  9  1  0  0  0
  9 10  1  0  0  0
  9  1  1  0  0  0
  2 11  1  0  0  0
  6 12  1  0  0  0
  8 13  1  0  0  0
 10 14  1  0  0  0
M  END
>  <CHROM.0>
-164.20079889,-55.42523189,153.07365325,63.85249891,-161.74103128,-172.92170850
171.76354851

>  <CHROM.1>
175.83708127,76.20894721,-179.87159302,-177.29616209,-169.12887574,29.55118894
25.47071544,23.57192961,-1.14926052,0.73187054,2.34682115

>  <Name>

>  <RI>
224

>  <Rbt.Current_Directory>
/extra/banzai2/j5wagner/CELPP/2016_10_17_rdock_implementation/normal_run/tutorialVideo/tutorial_rdock_implementation/full_week_run/4-docking/5m93/hiResHolo_1ogw_docking

>  <Rbt.Executable>
rbdock ($Id: //depot/dev/client3/rdock/2013.1/src/exe/rbdock.cxx#4 $)

>  <Rbt.Library>
libRbt.so (2013.1, Build901 2013/11/27)

>  <Rbt.Parameter_File>
/home/j5wagner/env_00/source/rDock/rDock_2013.1_src//data/scripts/dock.prm

>  <Rbt.Receptor>
/extra/banzai2/j5wagner/CELPP/2016_10_17_rdock_implementation/normal_run/tutorialVideo/tutorial_rdock_implementation/full_week_run/4-docking/5m93/hiResHolo_1ogw_tech_prep/rDockGridGenInput.prm

>  <SCORE>
-10.9034

>  <SCORE.INTER>
-4.86518

>  <SCORE.INTER.CONST>
1

>  <SCORE.INTER.POLAR>
-2.49773

>  <SCORE.INTER.REPUL>
0

>  <SCORE.INTER.ROT>
1

>  <SCORE.INTER.VDW>
-2.7729

>  <SCORE.INTER.norm>
-0.486518

>  <SCORE.INTRA>
-1.28968

>  <SCORE.INTRA.DIHEDRAL>
-3.12889

>  <SCORE.INTRA.DIHEDRAL.0>
5.02738

>  <SCORE.INTRA.POLAR>
0

>  <SCORE.INTRA.POLAR.0>
0

>  <SCORE.INTRA.REPUL>
0

>  <SCORE.INTRA.REPUL.0>
0

>  <SCORE.INTRA.VDW>
0.27476

>  <SCORE.INTRA.VDW.0>
-0.709724

>  <SCORE.INTRA.norm>
-0.128968

>  <SCORE.RESTR>
0.85355

>  <SCORE.RESTR.CAVITY>
0.85355

>  <SCORE.RESTR.norm>
0.085355

>  <SCORE.SYSTEM>
-5.60211

>  <SCORE.SYSTEM.CONST>
0

>  <SCORE.SYSTEM.DIHEDRAL>
3.28514

>  <SCORE.SYSTEM.POLAR>
-2.35911

>  <SCORE.SYSTEM.REPUL>
0.0303028

>  <SCORE.SYSTEM.VDW>
0.624799

>  <SCORE.SYSTEM.norm>
-0.560211

>  <SCORE.heavy>
10

>  <SCORE.norm>
-1.09034

$$$$

  rDOCK(R)          3D
libRbt.so/2013.1/901 2013/11/27
 14 14  0  0  0  0  0  0  0  0999 V2000
   23.9176   25.2383   17.4233 C   0  0  0  0  0  0
   22.5395   25.5085   17.4659 O   0  0  0  0  0  0
   24.6123   26.2746   16.7581 O   0  0  0  0  0  0
   25.7572   26.5827   17.5256 C   0  0  0  0  0  0
   26.9910   26.6662   16.6182 C   0  0  0  0  0  0
   26.8038   27.6393   15.6264 O   0  0  0  0  0  0
   25.9219   25.5239   18.6126 C   0  0  0  0  0  0
   26.4774   26.0783   19.7772 O   0  0  0  0  0  0
   24.5053   25.0484   18.8184 C   0  0  0  0  0  0
   23.8333   25.8576   19.7531 O   0  0  0  0  0  0
   22.1077   24.7692   17.9689 H   0  0  0  0  0  0
   25.9907   27.3769   15.1206 H   0  0  0  0  0  0
   26.6951   25.3156   20.3741 H   0  0  0  0  0  0
   24.1732   25.6006   20.6496 H   0  0  0  0  0  0
  1  2  1  0  0  0
  1  3  1  0  0  0
  3  4  1  0  0  0
  4  5  1  0  0  0
  5  6  1  0  0  0
  4  7  1  0  0  0
  7  8  1  0  0  0
  7  9  1  0  0  0
  9 10  1  0  0  0
  9  1  1  0  0  0
  2 11  1  0  0  0
  6 12  1  0  0  0
  8 13  1  0  0  0
 10 14  1  0  0  0
M  END
>  <CHROM.0>
-45.65543693,172.29975377,71.50480568,-56.92631196,-11.55693005,72.36056789
173.23098452

>  <CHROM.1>
-178.03089752,58.44850086,-58.31689650,-170.68730866,172.47911938,25.10974857
26.06137735,17.85203511,2.40304539,0.29130234,1.85379628

>  <Name>

>  <RI>
224

>  <Rbt.Current_Directory>
/extra/banzai2/j5wagner/CELPP/2016_10_17_rdock_implementation/normal_run/tutorialVideo/tutorial_rdock_implementation/full_week_run/4-docking/5m93/hiResHolo_1ogw_docking

>  <Rbt.Executable>
rbdock ($Id: //depot/dev/client3/rdock/2013.1/src/exe/rbdock.cxx#4 $)

>  <Rbt.Library>
libRbt.so (2013.1, Build901 2013/11/27)

>  <Rbt.Parameter_File>
/home/j5wagner/env_00/source/rDock/rDock_2013.1_src//data/scripts/dock.prm

>  <Rbt.Receptor>
/extra/banzai2/j5wagner/CELPP/2016_10_17_rdock_implementation/normal_run/tutorialVideo/tutorial_rdock_implementation/full_week_run/4-docking/5m93/hiResHolo_1ogw_tech_prep/rDockGridGenInput.prm

>  <SCORE>
-17.5822

>  <SCORE.INTER>
-5.20129

>  <SCORE.INTER.CONST>
1

>  <SCORE.INTER.POLAR>
0

>  <SCORE.INTER.REPUL>
0

>  <SCORE.INTER.ROT>
1

>  <SCORE.INTER.VDW>
-11.6013

>  <SCORE.INTER.norm>
-0.520129

>  <SCORE.INTRA>
-1.73202

>  <SCORE.INTRA.DIHEDRAL>
-3.96287

>  <SCORE.INTRA.DIHEDRAL.0>
5.02738

>  <SCORE.INTRA.POLAR>
-0.0215478

>  <SCORE.INTRA.POLAR.0>
0

>  <SCORE.INTRA.REPUL>
0

>  <SCORE.INTRA.REPUL.0>
0

>  <SCORE.INTRA.VDW>
0.322681

>  <SCORE.INTRA.VDW.0>
-0.709724

>  <SCORE.INTRA.norm>
-0.173202

>  <SCORE.RESTR>
0

>  <SCORE.RESTR.CAVITY>
0

>  <SCORE.RESTR.norm>
0

>  <SCORE.SYSTEM>
-10.6489

>  <SCORE.SYSTEM.CONST>
0

>  <SCORE.SYSTEM.DIHEDRAL>
2.26232

>  <SCORE.SYSTEM.POLAR>
-3.31828

>  <SCORE.SYSTEM.REPUL>
0.0347079

>  <SCORE.SYSTEM.VDW>
-0.671471

>  <SCORE.SYSTEM.norm>
-1.06489

>  <SCORE.heavy>
10

>  <SCORE.norm>
-1.75822

$$$$

  rDOCK(R)          3D
libRbt.so/2013.1/901 2013/11/27
 14 14  0  0  0  0  0  0  0  0999 V2000
   26.5788   25.0621   18.7948 C   0  0  0  0  0  0
   25.8739   24.0566   19.4775 O   0  0  0  0  0  0
   26.4521   24.9026   17.3957 O   0  0  0  0  0  0
   26.1785   26.1735   16.8438 C   0  0  0  0  0  0
   27.0795   26.4233   15.6279 C   0  0  0  0  0  0
   26.9305   27.7403   15.1710 O   0  0  0  0  0  0
   26.3755   27.2334   17.9244 C   0  0  0  0  0  0
   25.4831   28.3037   17.7503 O   0  0  0  0  0  0
   26.1076   26.4583   19.1904 C   0  0  0  0  0  0
   24.7338   26.4497   19.4943 O   0  0  0  0  0  0
   25.9878   24.2226   20.4499 H   0  0  0  0  0  0
   27.3898   28.3236   15.8302 H   0  0  0  0  0  0
   25.6853   28.6950   16.8607 H   0  0  0  0  0  0
   24.5280   27.3273   19.9101 H   0  0  0  0  0  0
  1  2  1  0  0  0
  1  3  1  0  0  0
  3  4  1  0  0  0
  4  5  1  0  0  0
  5  6  1  0  0  0
  4  7  1  0  0  0
  7  8  1  0  0  0
  7  9  1  0  0  0
  9 10  1  0  0  0
  9  1  1  0  0  0
  2 11  1  0  0  0
  6 12  1  0  0  0
  8 13  1  0  0  0
 10 14  1  0  0  0
M  END
>  <CHROM.0>
-165.95666710,172.95263809,71.33577061,-56.47265836,-177.60197362,-60.12117804
64.23970691

>  <CHROM.1>
-179.34881023,-172.93559685,73.24726705,-60.86789421,169.14506583,26.14954444
26.30547171,17.77496694,-2.05727266,1.07300817,-0.55088283

>  <Name>

>  <RI>
224

>  <Rbt.Current_Directory>
/extra/banzai2/j5wagner/CELPP/2016_10_17_rdock_implementation/normal_run/tutorialVideo/tutorial_rdock_implementation/full_week_run/4-docking/5m93/hiResHolo_1ogw_docking

>  <Rbt.Executable>
rbdock ($Id: //depot/dev/client3/rdock/2013.1/src/exe/rbdock.cxx#4 $)

>  <Rbt.Library>
libRbt.so (2013.1, Build901 2013/11/27)

>  <Rbt.Parameter_File>
/home/j5wagner/env_00/source/rDock/rDock_2013.1_src//data/scripts/dock.prm

>  <Rbt.Receptor>
/extra/banzai2/j5wagner/CELPP/2016_10_17_rdock_implementation/normal_run/tutorialVideo/tutorial_rdock_implementation/full_week_run/4-docking/5m93/hiResHolo_1ogw_tech_prep/rDockGridGenInput.prm

>  <SCORE>
-18.3162

>  <SCORE.INTER>
-7.25233

>  <SCORE.INTER.CONST>
1

>  <SCORE.INTER.POLAR>
-0.424784

>  <SCORE.INTER.REPUL>
0.00352375

>  <SCORE.INTER.ROT>
1

>  <SCORE.INTER.VDW>
-12.2257

>  <SCORE.INTER.norm>
-0.725233

>  <SCORE.INTRA>
-1.01648

>  <SCORE.INTRA.DIHEDRAL>
-3.12552

>  <SCORE.INTRA.DIHEDRAL.0>
5.02738

>  <SCORE.INTRA.POLAR>
-0.0205587

>  <SCORE.INTRA.POLAR.0>
0

>  <SCORE.INTRA.REPUL>
0

>  <SCORE.INTRA.REPUL.0>
0

>  <SCORE.INTRA.VDW>
0.616179

>  <SCORE.INTRA.VDW.0>
-0.709724

>  <SCORE.INTRA.norm>
-0.101648

>  <SCORE.RESTR>
0

>  <SCORE.RESTR.CAVITY>
0

>  <SCORE.RESTR.norm>
0

>  <SCORE.SYSTEM>
-10.0474

>  <SCORE.SYSTEM.CONST>
0

>  <SCORE.SYSTEM.DIHEDRAL>
1.14887

>  <SCORE.SYSTEM.POLAR>
-3.02551

>  <SCORE.SYSTEM.REPUL>
0.0253452

>  <SCORE.SYSTEM.VDW>
-0.461855

>  <SCORE.SYSTEM.norm>
-1.00474

>  <SCORE.heavy>
10

>  <SCORE.norm>
-1.83162

$$$$

  rDOCK(R)          3D
libRbt.so/2013.1/901 2013/11/27
 14 14  0  0  0  0  0  0  0  0999 V2000
   25.5839   28.8496   14.4599 C   0  0  0  0  0  0
   24.4334   28.0504   14.5678 O   0  0  0  0  0  0
   25.2628   30.1242   13.9391 O   0  0  0  0  0  0
   25.9376   31.0876   14.7209 C   0  0  0  0  0  0
   26.6366   32.1060   13.8117 C   0  0  0  0  0  0
   26.7356   33.3482   14.4540 O   0  0  0  0  0  0
   26.9257   30.3734   15.6393 C   0  0  0  0  0  0
   27.0606   31.0524   16.8612 O   0  0  0  0  0  0
   26.2924   29.0140   15.8011 C   0  0  0  0  0  0
   25.3614   29.0145   16.8561 O   0  0  0  0  0  0
   24.0343   27.9809   13.6611 H   0  0  0  0  0  0
   27.3834   33.2330   15.1976 H   0  0  0  0  0  0
   27.6973   31.7966   16.6991 H   0  0  0  0  0  0
   24.9577   28.1080   16.8811 H   0  0  0  0  0  0
  1  2  1  0  0  0
  1  3  1  0  0  0
  3  4  1  0  0  0
  4  5  1  0  0  0
  5  6  1  0  0  0
  4  7  1  0  0  0
  7  8  1  0  0  0
  7  9  1  0  0  0
  9 10  1  0  0  0
  9  1  1  0  0  0
  2 11  1  0  0  0
  6 12  1  0  0  0
  8 13  1  0  0  0
 10 14  1  0  0  0
M  END
>  <CHROM.0>
-47.24879426,170.14510085,-166.49266450,-177.47073841,-11.19965811,70.92229967
174.85313962

>  <CHROM.1>
58.16172622,151.29195744,68.88363693,-81.32087064,65.88122240,26.00193299
30.31511676,15.13806290,2.37289103,1.00757663,2.27483148

>  <Name>

>  <RI>
224

>  <Rbt.Current_Directory>
/extra/banzai2/j5wagner/CELPP/2016_10_17_rdock_implementation/normal_run/tutorialVideo/tutorial_rdock_implementation/full_week_run/4-docking/5m93/hiResHolo_1ogw_docking

>  <Rbt.Executable>
rbdock ($Id: //depot/dev/client3/rdock/2013.1/src/exe/rbdock.cxx#4 $)

>  <Rbt.Library>
libRbt.so (2013.1, Build901 2013/11/27)

>  <Rbt.Parameter_File>
/home/j5wagner/env_00/source/rDock/rDock_2013.1_src//data/scripts/dock.prm

>  <Rbt.Receptor>
/extra/banzai2/j5wagner/CELPP/2016_10_17_rdock_implementation/normal_run/tutorialVideo/tutorial_rdock_implementation/full_week_run/4-docking/5m93/hiResHolo_1ogw_tech_prep/rDockGridGenInput.prm

>  <SCORE>
-18.573

>  <SCORE.INTER>
-9.58744

>  <SCORE.INTER.CONST>
1

>  <SCORE.INTER.POLAR>
-1.48449

>  <SCORE.INTER.REPUL>
0.00221511

>  <SCORE.INTER.ROT>
1

>  <SCORE.INTER.VDW>
-10.9513

>  <SCORE.INTER.norm>
-0.958744

>  <SCORE.INTRA>
0.321262

>  <SCORE.INTRA.DIHEDRAL>
0.309599

>  <SCORE.INTRA.DIHEDRAL.0>
5.02738

>  <SCORE.INTRA.POLAR>
0

>  <SCORE.INTRA.POLAR.0>
0

>  <SCORE.INTRA.REPUL>
0.0267612

>  <SCORE.INTRA.REPUL.0>
0

>  <SCORE.INTRA.VDW>
0.0326563

>  <SCORE.INTRA.VDW.0>
-0.709724

>  <SCORE.INTRA.norm>
0.0321262

>  <SCORE.RESTR>
0

>  <SCORE.RESTR.CAVITY>
0

>  <SCORE.RESTR.norm>
0

>  <SCORE.SYSTEM>
-9.30686

>  <SCORE.SYSTEM.CONST>
0

>  <SCORE.SYSTEM.DIHEDRAL>
2.1912

>  <SCORE.SYSTEM.POLAR>
-2.93158

>  <SCORE.SYSTEM.REPUL>
0.0341355

>  <SCORE.SYSTEM.VDW>
-0.605766

>  <SCORE.SYSTEM.norm>
-0.930686

>  <SCORE.heavy>
10

>  <SCORE.norm>
-1.8573

$$$$

  rDOCK(R)          3D
libRbt.so/2013.1/901 2013/11/27
 14 14  0  0  0  0  0  0  0  0999 V2000
   27.2843   26.1541   19.2417 C   0  0  0  0  0  0
   28.2171   25.2621   19.7968 O   0  0  0  0  0  0
   27.3962   26.1852   17.8326 O   0  0  0  0  0  0
   26.0900   26.1258   17.2988 C   0  0  0  0  0  0
   25.9181   27.1931   16.2107 C   0  0  0  0  0  0
   26.2587   28.4586   16.7087 O   0  0  0  0  0  0
   25.0847   26.3041   18.4335 C   0  0  0  0  0  0
   23.9150   25.5653   18.1924 O   0  0  0  0  0  0
   25.8524   25.7962   19.6285 C   0  0  0  0  0  0
   25.7095   24.4029   19.7637 O   0  0  0  0  0  0
   28.0968   25.2824   20.7823 H   0  0  0  0  0  0
   25.6373   28.6449   17.4604 H   0  0  0  0  0  0
   23.5505   25.8921   17.3288 H   0  0  0  0  0  0
   24.7725   24.2383   20.0471 H   0  0  0  0  0  0
  1  2  1  0  0  0
  1  3  1  0  0  0
  3  4  1  0  0  0
  4  5  1  0  0  0
  5  6  1  0  0  0
  4  7  1  0  0  0
  7  8  1  0  0  0
  7  9  1  0  0  0
  9 10  1  0  0  0
  9  1  1  0  0  0
  2 11  1  0  0  0
  6 12  1  0  0  0
  8 13  1  0  0  0
 10 14  1  0  0  0
M  END
>  <CHROM.0>
-166.42169032,-56.81329439,71.70582606,-55.99332664,-174.62124228,-174.64667440
63.77485163

>  <CHROM.1>
179.80965816,-54.09057476,-60.93395218,-58.49933275,177.94855876,26.16579832
26.13140388,18.32728889,-1.34012142,-0.19535067,-0.84646408

>  <Name>

>  <RI>
224

>  <Rbt.Current_Directory>
/extra/banzai2/j5wagner/CELPP/2016_10_17_rdock_implementation/normal_run/tutorialVideo/tutorial_rdock_implementation/full_week_run/4-docking/5m93/hiResHolo_1ogw_docking

>  <Rbt.Executable>
rbdock ($Id: //depot/dev/client3/rdock/2013.1/src/exe/rbdock.cxx#4 $)

>  <Rbt.Library>
libRbt.so (2013.1, Build901 2013/11/27)

>  <Rbt.Parameter_File>
/home/j5wagner/env_00/source/rDock/rDock_2013.1_src//data/scripts/dock.prm

>  <Rbt.Receptor>
/extra/banzai2/j5wagner/CELPP/2016_10_17_rdock_implementation/normal_run/tutorialVideo/tutorial_rdock_implementation/full_week_run/4-docking/5m93/hiResHolo_1ogw_tech_prep/rDockGridGenInput.prm

>  <SCORE>
-18.8207

>  <SCORE.INTER>
-7.30577

>  <SCORE.INTER.CONST>
1

>  <SCORE.INTER.POLAR>
0

>  <SCORE.INTER.REPUL>
0

>  <SCORE.INTER.ROT>
1

>  <SCORE.INTER.VDW>
-13.7058

>  <SCORE.INTER.norm>
-0.730577

>  <SCORE.INTRA>
-1.82978

>  <SCORE.INTRA.DIHEDRAL>
-4.51227

>  <SCORE.INTRA.DIHEDRAL.0>
5.02738

>  <SCORE.INTRA.POLAR>
0

>  <SCORE.INTRA.POLAR.0>
0

>  <SCORE.INTRA.REPUL>
0

>  <SCORE.INTRA.REPUL.0>
0

>  <SCORE.INTRA.VDW>
0.426361

>  <SCORE.INTRA.VDW.0>
-0.709724

>  <SCORE.INTRA.norm>
-0.182978

>  <SCORE.RESTR>
0

>  <SCORE.RESTR.CAVITY>
0

>  <SCORE.RESTR.norm>
0

>  <SCORE.SYSTEM>
-9.6852

>  <SCORE.SYSTEM.CONST>
0

>  <SCORE.SYSTEM.DIHEDRAL>
1.11276

>  <SCORE.SYSTEM.POLAR>
-3.0364

>  <SCORE.SYSTEM.REPUL>
0.0355883

>  <SCORE.SYSTEM.VDW>
-0.0957672

>  <SCORE.SYSTEM.norm>
-0.96852

>  <SCORE.heavy>
10

>  <SCORE.norm>
-1.88207

$$$$

  rDOCK(R)          3D
libRbt.so/2013.1/901 2013/11/27
 14 14  0  0  0  0  0  0  0  0999 V2000
   29.7369   26.1729   21.0425 C   0  0  0  0  0  0
   28.8485   26.9427   20.2729 O   0  0  0  0  0  0
   30.2490   26.9274   22.1229 O   0  0  0  0  0  0
   30.1912   26.1151   23.2768 C   0  0  0  0  0  0
   31.5247   26.1793   24.0319 C   0  0  0  0  0  0
   31.9983   27.4980   24.0770 O   0  0  0  0  0  0
   29.8427   24.6889   22.8591 C   0  0  0  0  0  0
   29.0724   24.0486   23.8434 O   0  0  0  0  0  0
   29.0776   24.9051   21.5772 C   0  0  0  0  0  0
   27.7128   25.1284   21.8369 O   0  0  0  0  0  0
   28.0925   27.2011   20.8627 H   0  0  0  0  0  0
   32.1010   27.7956   23.1353 H   0  0  0  0  0  0
   29.6253   24.0369   24.6678 H   0  0  0  0  0  0
   27.2841   25.3230   20.9630 H   0  0  0  0  0  0
  1  2  1  0  0  0
  1  3  1  0  0  0
  3  4  1  0  0  0
  4  5  1  0  0  0
  5  6  1  0  0  0
  4  7  1  0  0  0
  7  8  1  0  0  0
  7  9  1  0  0  0
  9 10  1  0  0  0
  9  1  1  0  0  0
  2 11  1  0  0  0
  6 12  1  0  0  0
  8 13  1  0  0  0
 10 14  1  0  0  0
M  END
>  <CHROM.0>
-43.10187551,173.48898792,-168.45742505,-56.47047778,-8.46130138,-170.86026394
63.81417462

>  <CHROM.1>
-61.69613319,42.60321625,-58.86793786,-60.21722617,64.49516232,29.79731281
25.89357550,22.49575074,-2.87138576,0.71296002,2.31065597

>  <Name>

>  <RI>
224

>  <Rbt.Current_Directory>
/extra/banzai2/j5wagner/CELPP/2016_10_17_rdock_implementation/normal_run/tutorialVideo/tutorial_rdock_implementation/full_week_run/4-docking/5m93/hiResHolo_1ogw_docking

>  <Rbt.Executable>
rbdock ($Id: //depot/dev/client3/rdock/2013.1/src/exe/rbdock.cxx#4 $)

>  <Rbt.Library>
libRbt.so (2013.1, Build901 2013/11/27)

>  <Rbt.Parameter_File>
/home/j5wagner/env_00/source/rDock/rDock_2013.1_src//data/scripts/dock.prm

>  <Rbt.Receptor>
/extra/banzai2/j5wagner/CELPP/2016_10_17_rdock_implementation/normal_run/tutorialVideo/tutorial_rdock_implementation/full_week_run/4-docking/5m93/hiResHolo_1ogw_tech_prep/rDockGridGenInput.prm

>  <SCORE>
-21.2924

>  <SCORE.INTER>
-10.1911

>  <SCORE.INTER.CONST>
1

>  <SCORE.INTER.POLAR>
-3.56237

>  <SCORE.INTER.REPUL>
0.00533803

>  <SCORE.INTER.ROT>
1

>  <SCORE.INTER.VDW>
-4.50577

>  <SCORE.INTER.norm>
-1.01911

>  <SCORE.INTRA>
-1.3192

>  <SCORE.INTRA.DIHEDRAL>
-3.53031

>  <SCORE.INTRA.DIHEDRAL.0>
5.02738

>  <SCORE.INTRA.POLAR>
-0.0356986

>  <SCORE.INTRA.POLAR.0>
0

>  <SCORE.INTRA.REPUL>
0

>  <SCORE.INTRA.REPUL.0>
0

>  <SCORE.INTRA.VDW>
0.567327

>  <SCORE.INTRA.VDW.0>
-0.709724

>  <SCORE.INTRA.norm>
-0.13192

>  <SCORE.RESTR>
0

>  <SCORE.RESTR.CAVITY>
0

>  <SCORE.RESTR.norm>
0

>  <SCORE.SYSTEM>
-9.78202

>  <SCORE.SYSTEM.CONST>
0

>  <SCORE.SYSTEM.DIHEDRAL>
1.80159

>  <SCORE.SYSTEM.POLAR>
-2.89245

>  <SCORE.SYSTEM.REPUL>
0.0489219

>  <SCORE.SYSTEM.VDW>
-1.09311

>  <SCORE.SYSTEM.norm>
-0.978202

>  <SCORE.heavy>
10

>  <SCORE.norm>
-2.12924

$$$$

  rDOCK(R)          3D
libRbt.so/2013.1/901 2013/11/27
 14 14  0  0  0  0  0  0  0  0999 V2000
   27.3954   28.2576   15.0412 C   0  0  0  0  0  0
   27.8908   27.1397   15.7332 O   0  0  0  0  0  0
   26.7966   27.8682   13.8211 O   0  0  0  0  0  0
   25.5716   28.5617   13.7058 C   0  0  0  0  0  0
   25.4441   29.1735   12.3051 C   0  0  0  0  0  0
   24.1635   29.7138   12.1220 O   0  0  0  0  0  0
   25.5020   29.6250   14.7988 C   0  0  0  0  0  0
   24.1805   29.8153   15.2343 O   0  0  0  0  0  0
   26.3859   29.0426   15.8734 C   0  0  0  0  0  0
   25.6570   28.1789   16.7117 O   0  0  0  0  0  0
   28.5795   26.7155   15.1571 H   0  0  0  0  0  0
   24.1409   30.0860   11.2018 H   0  0  0  0  0  0
   24.2159   30.5139   15.9388 H   0  0  0  0  0  0
   25.0345   28.7476   17.2355 H   0  0  0  0  0  0
  1  2  1  0  0  0
  1  3  1  0  0  0
  3  4  1  0  0  0
  4  5  1  0  0  0
  5  6  1  0  0  0
  4  7  1  0  0  0
  7  8  1  0  0  0
  7  9  1  0  0  0
  9 10  1  0  0  0
  9  1  1  0  0  0
  2 11  1  0  0  0
  6 12  1  0  0  0
  8 13  1  0  0  0
 10 14  1  0  0  0
M  END
>  <CHROM.0>
-43.08260019,-56.84227335,71.79639888,-56.52026385,178.27627252,71.67724504
174.42992876

>  <CHROM.1>
61.13819977,172.35566065,-179.60581250,179.94801757,178.92878081,25.86880818
28.72870146,14.54789854,-0.81207312,0.60305385,-1.56033986

>  <Name>

>  <RI>
224

>  <Rbt.Current_Directory>
/extra/banzai2/j5wagner/CELPP/2016_10_17_rdock_implementation/normal_run/tutorialVideo/tutorial_rdock_implementation/full_week_run/4-docking/5m93/hiResHolo_1ogw_docking

>  <Rbt.Executable>
rbdock ($Id: //depot/dev/client3/rdock/2013.1/src/exe/rbdock.cxx#4 $)

>  <Rbt.Library>
libRbt.so (2013.1, Build901 2013/11/27)

>  <Rbt.Parameter_File>
/home/j5wagner/env_00/source/rDock/rDock_2013.1_src//data/scripts/dock.prm

>  <Rbt.Receptor>
/extra/banzai2/j5wagner/CELPP/2016_10_17_rdock_implementation/normal_run/tutorialVideo/tutorial_rdock_implementation/full_week_run/4-docking/5m93/hiResHolo_1ogw_tech_prep/rDockGridGenInput.prm

>  <SCORE>
-19.3234

>  <SCORE.INTER>
-7.13597

>  <SCORE.INTER.CONST>
1

>  <SCORE.INTER.POLAR>
-0.536135

>  <SCORE.INTER.REPUL>
0

>  <SCORE.INTER.ROT>
1

>  <SCORE.INTER.VDW>
-11.7131

>  <SCORE.INTER.norm>
-0.713597

>  <SCORE.INTRA>
-2.14382

>  <SCORE.INTRA.DIHEDRAL>
-4.44645

>  <SCORE.INTRA.DIHEDRAL.0>
5.02738

>  <SCORE.INTRA.POLAR>
0

>  <SCORE.INTRA.POLAR.0>
0

>  <SCORE.INTRA.REPUL>
0

>  <SCORE.INTRA.REPUL.0>
0

>  <SCORE.INTRA.VDW>
0.0794025

>  <SCORE.INTRA.VDW.0>
-0.709724

>  <SCORE.INTRA.norm>
-0.214382

>  <SCORE.RESTR>
0

>  <SCORE.RESTR.CAVITY>
0

>  <SCORE.RESTR.norm>
0

>  <SCORE.SYSTEM>
-10.0436

>  <SCORE.SYSTEM.CONST>
0

>  <SCORE.SYSTEM.DIHEDRAL>
1.88727

>  <SCORE.SYSTEM.POLAR>
-3.31768

>  <SCORE.SYSTEM.REPUL>
0.000974488

>  <SCORE.SYSTEM.VDW>
0.287945

>  <SCORE.SYSTEM.norm>
-1.00436

>  <SCORE.heavy>
10

>  <SCORE.norm>
-1.93234

$$$$

  rDOCK(R)          3D
libRbt.so/2013.1/901 2013/11/27
 14 14  0  0  0  0  0  0  0  0999 V2000
   30.7689   27.2413   23.5043 C   0  0  0  0  0  0
   32.0959   27.6064   23.7867 O   0  0  0  0  0  0
   30.5225   27.2808   22.1127 O   0  0  0  0  0  0
   29.8168   26.1062   21.7702 C   0  0  0  0  0  0
   28.6168   26.4548   20.8809 C   0  0  0  0  0  0
   27.9245   25.2917   20.5156 O   0  0  0  0  0  0
   29.3873   25.3974   23.0520 C   0  0  0  0  0  0
   29.3809   24.0036   22.8801 O   0  0  0  0  0  0
   30.4330   25.8525   24.0393 C   0  0  0  0  0  0
   31.5648   25.0177   23.9947 O   0  0  0  0  0  0
   32.3256   28.3704   23.1953 H   0  0  0  0  0  0
   27.5197   24.9290   21.3466 H   0  0  0  0  0  0
   29.0870   23.6161   23.7456 H   0  0  0  0  0  0
   32.2895   25.4933   24.4785 H   0  0  0  0  0  0
  1  2  1  0  0  0
  1  3  1  0  0  0
  3  4  1  0  0  0
  4  5  1  0  0  0
  5  6  1  0  0  0
  4  7  1  0  0  0
  7  8  1  0  0  0
  7  9  1  0  0  0
  9 10  1  0  0  0
  9  1  1  0  0  0
  2 11  1  0  0  0
  6 12  1  0  0  0
  8 13  1  0  0  0
 10 14  1  0  0  0
M  END
>  <CHROM.0>
-165.57776827,174.16249415,41.13867898,-57.40865780,-6.24135294,72.10798923
65.02042508

>  <CHROM.1>
40.98453311,178.90998904,67.11709227,-179.55525406,53.98200353,30.07281800
25.99838259,22.65662904,-0.04677595,-0.75918440,-0.51770137

>  <Name>

>  <RI>
224

>  <Rbt.Current_Directory>
/extra/banzai2/j5wagner/CELPP/2016_10_17_rdock_implementation/normal_run/tutorialVideo/tutorial_rdock_implementation/full_week_run/4-docking/5m93/hiResHolo_1ogw_docking

>  <Rbt.Executable>
rbdock ($Id: //depot/dev/client3/rdock/2013.1/src/exe/rbdock.cxx#4 $)

>  <Rbt.Library>
libRbt.so (2013.1, Build901 2013/11/27)

>  <Rbt.Parameter_File>
/home/j5wagner/env_00/source/rDock/rDock_2013.1_src//data/scripts/dock.prm

>  <Rbt.Receptor>
/extra/banzai2/j5wagner/CELPP/2016_10_17_rdock_implementation/normal_run/tutorialVideo/tutorial_rdock_implementation/full_week_run/4-docking/5m93/hiResHolo_1ogw_tech_prep/rDockGridGenInput.prm

>  <SCORE>
-21.5817

>  <SCORE.INTER>
-11.1427

>  <SCORE.INTER.CONST>
1

>  <SCORE.INTER.POLAR>
-3.38169

>  <SCORE.INTER.REPUL>
0

>  <SCORE.INTER.ROT>
1

>  <SCORE.INTER.VDW>
-6.04496

>  <SCORE.INTER.norm>
-1.11427

>  <SCORE.INTRA>
-1.03708

>  <SCORE.INTRA.DIHEDRAL>
-2.61811

>  <SCORE.INTRA.DIHEDRAL.0>
5.02738

>  <SCORE.INTRA.POLAR>
-0.0588898

>  <SCORE.INTRA.POLAR.0>
0

>  <SCORE.INTRA.REPUL>
0

>  <SCORE.INTRA.REPUL.0>
0

>  <SCORE.INTRA.VDW>
0.472204

>  <SCORE.INTRA.VDW.0>
-0.709724

>  <SCORE.INTRA.norm>
-0.103708

>  <SCORE.RESTR>
0.421044

>  <SCORE.RESTR.CAVITY>
0.421044

>  <SCORE.RESTR.norm>
0.0421044

>  <SCORE.SYSTEM>
-9.8229

>  <SCORE.SYSTEM.CONST>
0

>  <SCORE.SYSTEM.DIHEDRAL>
2.36676

>  <SCORE.SYSTEM.POLAR>
-2.98034

>  <SCORE.SYSTEM.REPUL>
0.0244507

>  <SCORE.SYSTEM.VDW>
-0.995395

>  <SCORE.SYSTEM.norm>
-0.98229

>  <SCORE.heavy>
10

>  <SCORE.norm>
-2.15817

$$$$
