
  rDOCK(R)          3D
libRbt.so/2013.1/901 2013/11/27
 36 40  0  0  0  0  0  0  0  0999 V2000
    7.4458  -30.9002   -2.1834 C   0  0  0  0  0  0
    7.9277  -31.1273   -0.7451 C   0  0  0  0  0  0
    7.2250  -29.4043   -2.4712 C   0  0  0  0  0  0
    8.5159  -28.6866   -2.5360 N   0  0  0  0  0  0
    8.2811  -27.2391   -2.7152 C   0  0  0  0  0  0
    9.5680  -26.5270   -3.0880 C   0  0  0  0  0  0
   10.7780  -26.6441   -2.3399 C   0  0  0  0  0  0
   10.8201  -27.4811   -1.0819 C   0  0  0  0  0  0
   11.9595  -25.9939   -2.8030 C   0  0  0  0  0  0
   13.1872  -26.1173   -2.0635 N   0  0  0  0  0  0
   14.3245  -26.5554   -2.5214 C   0  0  0  0  0  0
   14.4151  -27.0387   -3.8296 O   0  0  0  0  0  0
   15.5028  -26.5861   -1.6202 C   0  0  0  0  0  0
   16.6910  -27.2372   -1.9850 C   0  0  0  0  0  0
   17.7478  -27.2576   -1.1323 N   0  0  0  0  0  0
   17.6860  -26.6440    0.0788 C   0  0  0  0  0  0
   18.8441  -26.7223    1.0166 C   0  0  0  0  0  0
   16.5485  -26.0052    0.4553 N   0  0  0  0  0  0
   15.4664  -25.9596   -0.3634 C   0  0  0  0  0  0
   11.8893  -25.1739   -3.9461 C   0  0  0  0  0  0
   10.7105  -25.0767   -4.6015 N   0  0  0  0  0  0
   10.3995  -24.3764   -5.7004 C   0  0  0  0  0  0
    9.0652  -24.6167   -5.9714 C   0  0  0  0  0  0
    8.5484  -25.4601   -5.0464 N   0  0  0  0  0  0
    9.5928  -25.7131   -4.2279 C   0  0  0  0  0  0
    9.3390  -29.2277   -3.6385 C   0  0  0  0  0  0
    9.6633  -30.6978   -3.3728 C   0  0  0  0  0  0
    8.4200  -31.4467   -3.1431 N   0  0  0  0  0  0
    8.1256  -32.6169   -3.9337 C   0  0  0  0  0  0
    8.5323  -32.6778   -5.1273 O   0  0  0  0  0  0
    7.3941  -33.8072   -3.3433 C   0  0  0  0  0  0
    5.9080  -33.5065   -3.1287 C   0  0  0  0  0  0
    5.1537  -34.1288   -4.3047 C   0  0  0  0  0  0
    6.1710  -34.9041   -5.1364 C   0  0  0  0  0  0
    7.4316  -35.0009   -4.2929 C   0  0  0  0  0  0
   15.2779  -27.3920   -4.2217 H   0  0  0  0  0  0
  1  2  1  0  0  0
  1  3  1  0  0  0
  3  4  1  0  0  0
  4  5  1  0  0  0
  5  6  1  0  0  0
  6  7  2  0  0  0
  7  8  1  0  0  0
  7  9  1  0  0  0
  9 10  1  0  0  0
 10 11  2  0  0  0
 11 12  1  0  0  0
 11 13  1  0  0  0
 13 14  2  0  0  0
 14 15  1  0  0  0
 15 16  2  0  0  0
 16 17  1  0  0  0
 16 18  1  0  0  0
 18 19  2  0  0  0
  9 20  2  0  0  0
 20 21  1  0  0  0
 21 22  1  0  0  0
 22 23  2  0  0  0
 23 24  1  0  0  0
 24 25  2  0  0  0
  4 26  1  0  0  0
 26 27  1  0  0  0
 27 28  1  0  0  0
 28 29  1  0  0  0
 29 30  2  0  0  0
 29 31  1  0  0  0
 31 32  1  0  0  0
 32 33  1  0  0  0
 33 34  1  0  0  0
 34 35  1  0  0  0
 28  1  1  0  0  0
 35 31  1  0  0  0
 25  6  1  0  0  0
 19 13  1  0  0  0
 25 21  1  0  0  0
 12 36  1  0  0  0
M  END
>  <CHROM.0>
106.03698273,62.58470577,18.70057360,18.88094384,-153.63393942,-52.81855636
-52.54629726

>  <CHROM.1>
-167.52943408,-52.52460203,123.77296173,-179.68439686,169.79497148,73.12835385
10.81042637,-28.60135875,-2.88477510,-2.61398427,-0.43678940,-0.26731962

>  <Name>

>  <RI>
0

>  <Rbt.Current_Directory>
/extra/banzai2/j5wagner/CELPP/2016_10_17_rdock_implementation/normal_run/tutorialVideo/tutorial_rdock_implementation/full_week_run/4-docking/5m96/LMCSS_4wqp_docking

>  <Rbt.Executable>
rbdock ($Id: //depot/dev/client3/rdock/2013.1/src/exe/rbdock.cxx#4 $)

>  <Rbt.Library>
libRbt.so (2013.1, Build901 2013/11/27)

>  <Rbt.Parameter_File>
/home/j5wagner/env_00/source/rDock/rDock_2013.1_src//data/scripts/dock.prm

>  <Rbt.Receptor>
/extra/banzai2/j5wagner/CELPP/2016_10_17_rdock_implementation/normal_run/tutorialVideo/tutorial_rdock_implementation/full_week_run/4-docking/5m96/LMCSS_4wqp_tech_prep/rDockGridGenInput.prm

>  <SCORE>
-22.1934

>  <SCORE.INTER>
-18.6763

>  <SCORE.INTER.CONST>
1

>  <SCORE.INTER.POLAR>
-1.08105

>  <SCORE.INTER.REPUL>
0.00856973

>  <SCORE.INTER.ROT>
5

>  <SCORE.INTER.VDW>
-25.4436

>  <SCORE.INTER.norm>
-0.53361

>  <SCORE.INTRA>
0.402216

>  <SCORE.INTRA.DIHEDRAL>
-3.03578

>  <SCORE.INTRA.DIHEDRAL.0>
9.74364

>  <SCORE.INTRA.POLAR>
0

>  <SCORE.INTRA.POLAR.0>
0

>  <SCORE.INTRA.REPUL>
-0.108387

>  <SCORE.INTRA.REPUL.0>
0.108387

>  <SCORE.INTRA.VDW>
2.46204

>  <SCORE.INTRA.VDW.0>
-2.87247

>  <SCORE.INTRA.norm>
0.0114919

>  <SCORE.RESTR>
0

>  <SCORE.RESTR.CAVITY>
0

>  <SCORE.RESTR.norm>
0

>  <SCORE.SYSTEM>
-3.91925

>  <SCORE.SYSTEM.CONST>
0

>  <SCORE.SYSTEM.DIHEDRAL>
6.93739

>  <SCORE.SYSTEM.POLAR>
-2.00545

>  <SCORE.SYSTEM.REPUL>
0.000510821

>  <SCORE.SYSTEM.VDW>
-0.571974

>  <SCORE.SYSTEM.norm>
-0.111979

>  <SCORE.heavy>
35

>  <SCORE.norm>
-0.634096

$$$$

  rDOCK(R)          3D
libRbt.so/2013.1/901 2013/11/27
 36 40  0  0  0  0  0  0  0  0999 V2000
    6.3177  -33.3663   -4.5233 C   0  0  0  0  0  0
    5.5394  -32.9115   -3.2824 C   0  0  0  0  0  0
    7.3182  -32.2908   -4.9832 C   0  0  0  0  0  0
    8.4400  -32.1751   -4.0272 N   0  0  0  0  0  0
    9.3375  -31.0736   -4.4318 C   0  0  0  0  0  0
    9.6233  -30.1537   -3.2595 C   0  0  0  0  0  0
   10.9407  -29.7985   -2.8402 C   0  0  0  0  0  0
   12.1477  -30.3720   -3.5469 C   0  0  0  0  0  0
   11.1147  -28.8718   -1.7707 C   0  0  0  0  0  0
   12.4384  -28.4968   -1.3500 N   0  0  0  0  0  0
   12.8361  -27.3006   -1.0248 C   0  0  0  0  0  0
   11.9644  -26.2146   -1.1434 O   0  0  0  0  0  0
   14.2381  -27.1005   -0.5825 C   0  0  0  0  0  0
   14.6731  -25.8787   -0.0466 C   0  0  0  0  0  0
   15.9664  -25.7236    0.3378 N   0  0  0  0  0  0
   16.8602  -26.7413    0.2253 C   0  0  0  0  0  0
   18.2863  -26.5298    0.6101 C   0  0  0  0  0  0
   16.4645  -27.9344   -0.2882 N   0  0  0  0  0  0
   15.1823  -28.1354   -0.6868 C   0  0  0  0  0  0
    9.9810  -28.3897   -1.0880 C   0  0  0  0  0  0
    8.7570  -28.7802   -1.5096 N   0  0  0  0  0  0
    7.5468  -28.4570   -1.0347 C   0  0  0  0  0  0
    6.6145  -29.1137   -1.8167 C   0  0  0  0  0  0
    7.2405  -29.8420   -2.7716 N   0  0  0  0  0  0
    8.5510  -29.6074   -2.5427 C   0  0  0  0  0  0
    9.1758  -33.4555   -3.9556 C   0  0  0  0  0  0
    8.2557  -34.5556   -3.4265 C   0  0  0  0  0  0
    7.0377  -34.6208   -4.2460 N   0  0  0  0  0  0
    6.6421  -35.8681   -4.8534 C   0  0  0  0  0  0
    7.5285  -36.6936   -5.2092 O   0  0  0  0  0  0
    5.1808  -36.2412   -5.0150 C   0  0  0  0  0  0
    4.8075  -36.4351   -6.4874 C   0  0  0  0  0  0
    4.8122  -37.9413   -6.7531 C   0  0  0  0  0  0
    5.0557  -38.6365   -5.4171 C   0  0  0  0  0  0
    4.8777  -37.5767   -4.3422 C   0  0  0  0  0  0
   11.0093  -26.3143   -1.4609 H   0  0  0  0  0  0
  1  2  1  0  0  0
  1  3  1  0  0  0
  3  4  1  0  0  0
  4  5  1  0  0  0
  5  6  1  0  0  0
  6  7  2  0  0  0
  7  8  1  0  0  0
  7  9  1  0  0  0
  9 10  1  0  0  0
 10 11  2  0  0  0
 11 12  1  0  0  0
 11 13  1  0  0  0
 13 14  2  0  0  0
 14 15  1  0  0  0
 15 16  2  0  0  0
 16 17  1  0  0  0
 16 18  1  0  0  0
 18 19  2  0  0  0
  9 20  2  0  0  0
 20 21  1  0  0  0
 21 22  1  0  0  0
 22 23  2  0  0  0
 23 24  1  0  0  0
 24 25  2  0  0  0
  4 26  1  0  0  0
 26 27  1  0  0  0
 27 28  1  0  0  0
 28 29  1  0  0  0
 29 30  2  0  0  0
 29 31  1  0  0  0
 31 32  1  0  0  0
 32 33  1  0  0  0
 33 34  1  0  0  0
 34 35  1  0  0  0
 28  1  1  0  0  0
 35 31  1  0  0  0
 25  6  1  0  0  0
 19 13  1  0  0  0
 25 21  1  0  0  0
 12 36  1  0  0  0
M  END
>  <CHROM.0>
24.90332952,60.05290668,-159.99951475,16.09627469,7.35393224,65.46068962
-53.11249792

>  <CHROM.1>
130.33413063,127.06408526,138.85496798,1.21525749,-171.09342190,119.36838824
9.73294541,-31.12377537,-2.80466229,2.29662554,0.11547020,-2.76458979

>  <Name>

>  <RI>
0

>  <Rbt.Current_Directory>
/extra/banzai2/j5wagner/CELPP/2016_10_17_rdock_implementation/normal_run/tutorialVideo/tutorial_rdock_implementation/full_week_run/4-docking/5m96/LMCSS_4wqp_docking

>  <Rbt.Executable>
rbdock ($Id: //depot/dev/client3/rdock/2013.1/src/exe/rbdock.cxx#4 $)

>  <Rbt.Library>
libRbt.so (2013.1, Build901 2013/11/27)

>  <Rbt.Parameter_File>
/home/j5wagner/env_00/source/rDock/rDock_2013.1_src//data/scripts/dock.prm

>  <Rbt.Receptor>
/extra/banzai2/j5wagner/CELPP/2016_10_17_rdock_implementation/normal_run/tutorialVideo/tutorial_rdock_implementation/full_week_run/4-docking/5m96/LMCSS_4wqp_tech_prep/rDockGridGenInput.prm

>  <SCORE>
-26.622

>  <SCORE.INTER>
-16.3604

>  <SCORE.INTER.CONST>
1

>  <SCORE.INTER.POLAR>
0

>  <SCORE.INTER.REPUL>
0

>  <SCORE.INTER.ROT>
5

>  <SCORE.INTER.VDW>
-26.7604

>  <SCORE.INTER.norm>
-0.46744

>  <SCORE.INTRA>
0.552645

>  <SCORE.INTRA.DIHEDRAL>
0.358039

>  <SCORE.INTRA.DIHEDRAL.0>
9.74364

>  <SCORE.INTRA.POLAR>
0

>  <SCORE.INTRA.POLAR.0>
0

>  <SCORE.INTRA.REPUL>
0.00495877

>  <SCORE.INTRA.REPUL.0>
0.108387

>  <SCORE.INTRA.VDW>
0.348832

>  <SCORE.INTRA.VDW.0>
-2.87247

>  <SCORE.INTRA.norm>
0.0157899

>  <SCORE.RESTR>
0

>  <SCORE.RESTR.CAVITY>
0

>  <SCORE.RESTR.norm>
0

>  <SCORE.SYSTEM>
-10.8143

>  <SCORE.SYSTEM.CONST>
0

>  <SCORE.SYSTEM.DIHEDRAL>
2.25044

>  <SCORE.SYSTEM.POLAR>
-3.47155

>  <SCORE.SYSTEM.VDW>
-0.136221

>  <SCORE.SYSTEM.norm>
-0.308979

>  <SCORE.heavy>
35

>  <SCORE.norm>
-0.760629

$$$$

  rDOCK(R)          3D
libRbt.so/2013.1/901 2013/11/27
 36 40  0  0  0  0  0  0  0  0999 V2000
   11.8262  -28.5576   -3.1944 C   0  0  0  0  0  0
   12.4486  -29.9555   -3.2991 C   0  0  0  0  0  0
   10.3029  -28.6043   -3.4103 C   0  0  0  0  0  0
    9.6303  -29.2514   -2.2637 N   0  0  0  0  0  0
    8.1826  -29.3755   -2.5311 C   0  0  0  0  0  0
    7.6974  -30.7805   -2.2264 C   0  0  0  0  0  0
    7.4890  -31.7761   -3.2278 C   0  0  0  0  0  0
    7.7152  -31.4510   -4.6866 C   0  0  0  0  0  0
    7.0978  -33.0922   -2.8434 C   0  0  0  0  0  0
    6.8989  -34.1063   -3.8441 N   0  0  0  0  0  0
    7.2101  -35.3662   -3.7403 C   0  0  0  0  0  0
    7.8722  -35.8341   -2.6019 O   0  0  0  0  0  0
    6.9035  -36.2816   -4.8670 C   0  0  0  0  0  0
    6.7129  -37.6572   -4.6661 C   0  0  0  0  0  0
    6.4455  -38.4705   -5.7203 N   0  0  0  0  0  0
    6.3450  -37.9759   -6.9822 C   0  0  0  0  0  0
    6.0981  -38.8978   -8.1292 C   0  0  0  0  0  0
    6.5231  -36.6481   -7.2037 N   0  0  0  0  0  0
    6.7934  -35.7970   -6.1809 C   0  0  0  0  0  0
    6.8384  -33.3629   -1.4857 C   0  0  0  0  0  0
    7.0256  -32.3749   -0.5815 N   0  0  0  0  0  0
    6.8556  -32.3897    0.7472 C   0  0  0  0  0  0
    7.1856  -31.1306    1.2133 C   0  0  0  0  0  0
    7.5576  -30.3366    0.1812 N   0  0  0  0  0  0
    7.4423  -31.1418   -0.8973 C   0  0  0  0  0  0
    9.8740  -28.4726   -1.0309 C   0  0  0  0  0  0
   11.3692  -28.4545   -0.7137 C   0  0  0  0  0  0
   12.1180  -27.9634   -1.8789 N   0  0  0  0  0  0
   13.0208  -26.8470   -1.7386 C   0  0  0  0  0  0
   12.7664  -25.9457   -0.8919 O   0  0  0  0  0  0
   14.3063  -26.7634   -2.5394 C   0  0  0  0  0  0
   15.1694  -25.5777   -2.0988 C   0  0  0  0  0  0
   16.2496  -26.1344   -1.1700 C   0  0  0  0  0  0
   16.1067  -27.6534   -1.1679 C   0  0  0  0  0  0
   15.1732  -27.9990   -2.3166 C   0  0  0  0  0  0
    8.1912  -35.2189   -1.8652 H   0  0  0  0  0  0
  1  2  1  0  0  0
  1  3  1  0  0  0
  3  4  1  0  0  0
  4  5  1  0  0  0
  5  6  1  0  0  0
  6  7  2  0  0  0
  7  8  1  0  0  0
  7  9  1  0  0  0
  9 10  1  0  0  0
 10 11  2  0  0  0
 11 12  1  0  0  0
 11 13  1  0  0  0
 13 14  2  0  0  0
 14 15  1  0  0  0
 15 16  2  0  0  0
 16 17  1  0  0  0
 16 18  1  0  0  0
 18 19  2  0  0  0
  9 20  2  0  0  0
 20 21  1  0  0  0
 21 22  1  0  0  0
 22 23  2  0  0  0
 23 24  1  0  0  0
 24 25  2  0  0  0
  4 26  1  0  0  0
 26 27  1  0  0  0
 27 28  1  0  0  0
 28 29  1  0  0  0
 29 30  2  0  0  0
 29 31  1  0  0  0
 31 32  1  0  0  0
 32 33  1  0  0  0
 33 34  1  0  0  0
 34 35  1  0  0  0
 28  1  1  0  0  0
 35 31  1  0  0  0
 25  6  1  0  0  0
 19 13  1  0  0  0
 25 21  1  0  0  0
 12 36  1  0  0  0
M  END
>  <CHROM.0>
-13.38341789,61.71358993,-169.36147413,16.60793835,7.01376859,-50.68422114
56.33359549

>  <CHROM.1>
131.75810263,-99.80885970,142.39475320,-4.73380906,-154.68009504,-173.30827672
9.47081411,-31.45391367,-2.79514213,-0.82956770,-0.55504892,-2.33012677

>  <Name>

>  <RI>
0

>  <Rbt.Current_Directory>
/extra/banzai2/j5wagner/CELPP/2016_10_17_rdock_implementation/normal_run/tutorialVideo/tutorial_rdock_implementation/full_week_run/4-docking/5m96/LMCSS_4wqp_docking

>  <Rbt.Executable>
rbdock ($Id: //depot/dev/client3/rdock/2013.1/src/exe/rbdock.cxx#4 $)

>  <Rbt.Library>
libRbt.so (2013.1, Build901 2013/11/27)

>  <Rbt.Parameter_File>
/home/j5wagner/env_00/source/rDock/rDock_2013.1_src//data/scripts/dock.prm

>  <Rbt.Receptor>
/extra/banzai2/j5wagner/CELPP/2016_10_17_rdock_implementation/normal_run/tutorialVideo/tutorial_rdock_implementation/full_week_run/4-docking/5m96/LMCSS_4wqp_tech_prep/rDockGridGenInput.prm

>  <SCORE>
-16.8704

>  <SCORE.INTER>
-11.8798

>  <SCORE.INTER.CONST>
1

>  <SCORE.INTER.POLAR>
0

>  <SCORE.INTER.REPUL>
0.0266832

>  <SCORE.INTER.ROT>
5

>  <SCORE.INTER.VDW>
-22.4132

>  <SCORE.INTER.norm>
-0.339423

>  <SCORE.INTRA>
0.145462

>  <SCORE.INTRA.DIHEDRAL>
-0.873754

>  <SCORE.INTRA.DIHEDRAL.0>
9.74364

>  <SCORE.INTRA.POLAR>
0

>  <SCORE.INTRA.POLAR.0>
0

>  <SCORE.INTRA.REPUL>
-0.108387

>  <SCORE.INTRA.REPUL.0>
0.108387

>  <SCORE.INTRA.VDW>
1.12428

>  <SCORE.INTRA.VDW.0>
-2.87247

>  <SCORE.INTRA.norm>
0.00415605

>  <SCORE.RESTR>
0

>  <SCORE.RESTR.CAVITY>
0

>  <SCORE.RESTR.norm>
0

>  <SCORE.SYSTEM>
-5.13605

>  <SCORE.SYSTEM.CONST>
0

>  <SCORE.SYSTEM.DIHEDRAL>
1.38442

>  <SCORE.SYSTEM.POLAR>
-1.66601

>  <SCORE.SYSTEM.REPUL>
0.0307775

>  <SCORE.SYSTEM.VDW>
-0.317696

>  <SCORE.SYSTEM.norm>
-0.146744

>  <SCORE.heavy>
35

>  <SCORE.norm>
-0.482012

$$$$

  rDOCK(R)          3D
libRbt.so/2013.1/901 2013/11/27
 36 40  0  0  0  0  0  0  0  0999 V2000
    6.4554  -33.8830   -4.5956 C   0  0  0  0  0  0
    5.3582  -33.1422   -3.8211 C   0  0  0  0  0  0
    7.7745  -33.0899   -4.5962 C   0  0  0  0  0  0
    8.3886  -33.0926   -3.2513 N   0  0  0  0  0  0
    9.6001  -32.2471   -3.2472 C   0  0  0  0  0  0
    9.2319  -30.7792   -3.1387 C   0  0  0  0  0  0
    9.9357  -29.7385   -3.8164 C   0  0  0  0  0  0
   11.1406  -30.0619   -4.6700 C   0  0  0  0  0  0
    9.4768  -28.3926   -3.7120 C   0  0  0  0  0  0
   10.1712  -27.3387   -4.4025 N   0  0  0  0  0  0
    9.6276  -26.3231   -5.0091 C   0  0  0  0  0  0
    8.2367  -26.2227   -5.1009 O   0  0  0  0  0  0
   10.5031  -25.3091   -5.6467 C   0  0  0  0  0  0
   11.8775  -25.5304   -5.8233 C   0  0  0  0  0  0
   12.6540  -24.5769   -6.3997 N   0  0  0  0  0  0
   12.1230  -23.4010   -6.8265 C   0  0  0  0  0  0
   13.0062  -22.3508   -7.4126 C   0  0  0  0  0  0
   10.7955  -23.1625   -6.6693 N   0  0  0  0  0  0
    9.9804  -24.0856   -6.0975 C   0  0  0  0  0  0
    8.3865  -28.1019   -2.8691 C   0  0  0  0  0  0
    7.7731  -29.1229   -2.2289 N   0  0  0  0  0  0
    6.7269  -29.1010   -1.3925 C   0  0  0  0  0  0
    6.4818  -30.4079   -1.0137 C   0  0  0  0  0  0
    7.3705  -31.2381   -1.6096 N   0  0  0  0  0  0
    8.1416  -30.4055   -2.3425 C   0  0  0  0  0  0
    8.7107  -34.4776   -2.8467 C   0  0  0  0  0  0
    7.4278  -35.3029   -2.7486 C   0  0  0  0  0  0
    6.6837  -35.2160   -4.0128 N   0  0  0  0  0  0
    6.3022  -36.4200   -4.7100 C   0  0  0  0  0  0
    7.0397  -37.4417   -4.6334 O   0  0  0  0  0  0
    4.9989  -36.5086   -5.4809 C   0  0  0  0  0  0
    5.1293  -35.9028   -6.8812 C   0  0  0  0  0  0
    5.3247  -37.0672   -7.8535 C   0  0  0  0  0  0
    5.1777  -38.3568   -7.0516 C   0  0  0  0  0  0
    4.5918  -37.9618   -5.7059 C   0  0  0  0  0  0
    7.7770  -25.5351   -5.6831 H   0  0  0  0  0  0
  1  2  1  0  0  0
  1  3  1  0  0  0
  3  4  1  0  0  0
  4  5  1  0  0  0
  5  6  1  0  0  0
  6  7  2  0  0  0
  7  8  1  0  0  0
  7  9  1  0  0  0
  9 10  1  0  0  0
 10 11  2  0  0  0
 11 12  1  0  0  0
 11 13  1  0  0  0
 13 14  2  0  0  0
 14 15  1  0  0  0
 15 16  2  0  0  0
 16 17  1  0  0  0
 16 18  1  0  0  0
 18 19  2  0  0  0
  9 20  2  0  0  0
 20 21  1  0  0  0
 21 22  1  0  0  0
 22 23  2  0  0  0
 23 24  1  0  0  0
 24 25  2  0  0  0
  4 26  1  0  0  0
 26 27  1  0  0  0
 27 28  1  0  0  0
 28 29  1  0  0  0
 29 30  2  0  0  0
 29 31  1  0  0  0
 31 32  1  0  0  0
 32 33  1  0  0  0
 33 34  1  0  0  0
 34 35  1  0  0  0
 28  1  1  0  0  0
 35 31  1  0  0  0
 25  6  1  0  0  0
 19 13  1  0  0  0
 25 21  1  0  0  0
 12 36  1  0  0  0
M  END
>  <CHROM.0>
23.38064929,174.01759792,-169.07428985,-118.30434167,-163.21408207,-177.61882125
-53.64312796

>  <CHROM.1>
79.57534555,-143.20844459,140.74009821,-170.12400915,11.55980733,82.54098016
8.33383936,-30.80051425,-4.52658997,-2.83758392,1.13751749,1.17938372

>  <Name>

>  <RI>
0

>  <Rbt.Current_Directory>
/extra/banzai2/j5wagner/CELPP/2016_10_17_rdock_implementation/normal_run/tutorialVideo/tutorial_rdock_implementation/full_week_run/4-docking/5m96/LMCSS_4wqp_docking

>  <Rbt.Executable>
rbdock ($Id: //depot/dev/client3/rdock/2013.1/src/exe/rbdock.cxx#4 $)

>  <Rbt.Library>
libRbt.so (2013.1, Build901 2013/11/27)

>  <Rbt.Parameter_File>
/home/j5wagner/env_00/source/rDock/rDock_2013.1_src//data/scripts/dock.prm

>  <Rbt.Receptor>
/extra/banzai2/j5wagner/CELPP/2016_10_17_rdock_implementation/normal_run/tutorialVideo/tutorial_rdock_implementation/full_week_run/4-docking/5m96/LMCSS_4wqp_tech_prep/rDockGridGenInput.prm

>  <SCORE>
-22.835

>  <SCORE.INTER>
-21.027

>  <SCORE.INTER.CONST>
1

>  <SCORE.INTER.POLAR>
-0.00135041

>  <SCORE.INTER.REPUL>
0

>  <SCORE.INTER.ROT>
5

>  <SCORE.INTER.VDW>
-31.4224

>  <SCORE.INTER.norm>
-0.60077

>  <SCORE.INTRA>
0.23141

>  <SCORE.INTRA.DIHEDRAL>
-3.1576

>  <SCORE.INTRA.DIHEDRAL.0>
9.74364

>  <SCORE.INTRA.POLAR>
0

>  <SCORE.INTRA.POLAR.0>
0

>  <SCORE.INTRA.REPUL>
0.281074

>  <SCORE.INTRA.REPUL.0>
0.108387

>  <SCORE.INTRA.VDW>
0.404839

>  <SCORE.INTRA.VDW.0>
-2.87247

>  <SCORE.INTRA.norm>
0.00661171

>  <SCORE.RESTR>
0

>  <SCORE.RESTR.CAVITY>
0

>  <SCORE.RESTR.norm>
0

>  <SCORE.SYSTEM>
-2.03948

>  <SCORE.SYSTEM.CONST>
0

>  <SCORE.SYSTEM.DIHEDRAL>
5.44359

>  <SCORE.SYSTEM.POLAR>
-1.32883

>  <SCORE.SYSTEM.VDW>
-0.243265

>  <SCORE.SYSTEM.norm>
-0.0582709

>  <SCORE.heavy>
35

>  <SCORE.norm>
-0.65243

$$$$

  rDOCK(R)          3D
libRbt.so/2013.1/901 2013/11/27
 36 40  0  0  0  0  0  0  0  0999 V2000
    8.7917  -31.4784   -3.3253 C   0  0  0  0  0  0
    9.0543  -31.1061   -4.7899 C   0  0  0  0  0  0
    9.1070  -30.3031   -2.3827 C   0  0  0  0  0  0
    8.1080  -29.2242   -2.5374 N   0  0  0  0  0  0
    8.4804  -28.0665   -1.6986 C   0  0  0  0  0  0
    9.6837  -27.3465   -2.2782 C   0  0  0  0  0  0
   10.9799  -27.3726   -1.6811 C   0  0  0  0  0  0
   11.2080  -28.1129   -0.3831 C   0  0  0  0  0  0
   12.0699  -26.7241   -2.3326 C   0  0  0  0  0  0
   13.3829  -26.7567   -1.7458 N   0  0  0  0  0  0
   14.5037  -26.9751   -2.3711 C   0  0  0  0  0  0
   14.4980  -27.2887   -3.7331 O   0  0  0  0  0  0
   15.7756  -26.9418   -1.6078 C   0  0  0  0  0  0
   15.8577  -26.3437   -0.3411 C   0  0  0  0  0  0
   17.0400  -26.3190    0.3268 N   0  0  0  0  0  0
   18.1593  -26.8777   -0.2042 C   0  0  0  0  0  0
   19.4563  -26.7946    0.5290 C   0  0  0  0  0  0
   18.1065  -27.4646   -1.4275 N   0  0  0  0  0  0
   16.9472  -27.5121   -2.1326 C   0  0  0  0  0  0
   11.8287  -25.9932   -3.5122 C   0  0  0  0  0  0
   10.5756  -25.9792   -4.0201 N   0  0  0  0  0  0
   10.1056  -25.3714   -5.1175 C   0  0  0  0  0  0
    8.7582  -25.6698   -5.2020 C   0  0  0  0  0  0
    8.3914  -26.4575   -4.1632 N   0  0  0  0  0  0
    9.5373  -26.6187   -3.4662 C   0  0  0  0  0  0
    6.7645  -29.7255   -2.1778 C   0  0  0  0  0  0
    6.3550  -30.8474   -3.1320 C   0  0  0  0  0  0
    7.3895  -31.8908   -3.1444 N   0  0  0  0  0  0
    7.0361  -33.2612   -2.8643 C   0  0  0  0  0  0
    6.0879  -33.5071   -2.0680 O   0  0  0  0  0  0
    7.7350  -34.4159   -3.5563 C   0  0  0  0  0  0
    7.0343  -35.7485   -3.2769 C   0  0  0  0  0  0
    6.1670  -36.0599   -4.4976 C   0  0  0  0  0  0
    6.4556  -34.9877   -5.5439 C   0  0  0  0  0  0
    7.6984  -34.2505   -5.0726 C   0  0  0  0  0  0
   15.3475  -27.4266   -4.2643 H   0  0  0  0  0  0
  1  2  1  0  0  0
  1  3  1  0  0  0
  3  4  1  0  0  0
  4  5  1  0  0  0
  5  6  1  0  0  0
  6  7  2  0  0  0
  7  8  1  0  0  0
  7  9  1  0  0  0
  9 10  1  0  0  0
 10 11  2  0  0  0
 11 12  1  0  0  0
 11 13  1  0  0  0
 13 14  2  0  0  0
 14 15  1  0  0  0
 15 16  2  0  0  0
 16 17  1  0  0  0
 16 18  1  0  0  0
 18 19  2  0  0  0
  9 20  2  0  0  0
 20 21  1  0  0  0
 21 22  1  0  0  0
 22 23  2  0  0  0
 23 24  1  0  0  0
 24 25  2  0  0  0
  4 26  1  0  0  0
 26 27  1  0  0  0
 27 28  1  0  0  0
 28 29  1  0  0  0
 29 30  2  0  0  0
 29 31  1  0  0  0
 31 32  1  0  0  0
 32 33  1  0  0  0
 33 34  1  0  0  0
 34 35  1  0  0  0
 28  1  1  0  0  0
 35 31  1  0  0  0
 25  6  1  0  0  0
 19 13  1  0  0  0
 25 21  1  0  0  0
 12 36  1  0  0  0
M  END
>  <CHROM.0>
-100.03617464,175.09226742,16.93632852,-116.60784209,8.29159832,64.40675866
-53.23169601

>  <CHROM.1>
72.03050989,-109.18944442,136.33795907,177.32328196,-17.31735363,-170.37009431
10.79649397,-29.20295890,-2.72170527,-2.56261080,-0.32345674,-0.09783468

>  <Name>

>  <RI>
0

>  <Rbt.Current_Directory>
/extra/banzai2/j5wagner/CELPP/2016_10_17_rdock_implementation/normal_run/tutorialVideo/tutorial_rdock_implementation/full_week_run/4-docking/5m96/LMCSS_4wqp_docking

>  <Rbt.Executable>
rbdock ($Id: //depot/dev/client3/rdock/2013.1/src/exe/rbdock.cxx#4 $)

>  <Rbt.Library>
libRbt.so (2013.1, Build901 2013/11/27)

>  <Rbt.Parameter_File>
/home/j5wagner/env_00/source/rDock/rDock_2013.1_src//data/scripts/dock.prm

>  <Rbt.Receptor>
/extra/banzai2/j5wagner/CELPP/2016_10_17_rdock_implementation/normal_run/tutorialVideo/tutorial_rdock_implementation/full_week_run/4-docking/5m96/LMCSS_4wqp_tech_prep/rDockGridGenInput.prm

>  <SCORE>
-27.5899

>  <SCORE.INTER>
-20.7776

>  <SCORE.INTER.CONST>
1

>  <SCORE.INTER.POLAR>
-1.4183

>  <SCORE.INTER.REPUL>
0.0127843

>  <SCORE.INTER.ROT>
5

>  <SCORE.INTER.VDW>
-26.4193

>  <SCORE.INTER.norm>
-0.593646

>  <SCORE.INTRA>
-1.74236

>  <SCORE.INTRA.DIHEDRAL>
-3.74685

>  <SCORE.INTRA.DIHEDRAL.0>
9.74364

>  <SCORE.INTRA.POLAR>
0

>  <SCORE.INTRA.POLAR.0>
0

>  <SCORE.INTRA.REPUL>
-0.102804

>  <SCORE.INTRA.REPUL.0>
0.108387

>  <SCORE.INTRA.VDW>
0.645088

>  <SCORE.INTRA.VDW.0>
-2.87247

>  <SCORE.INTRA.norm>
-0.0497816

>  <SCORE.RESTR>
0

>  <SCORE.RESTR.CAVITY>
0

>  <SCORE.RESTR.norm>
0

>  <SCORE.SYSTEM>
-5.06998

>  <SCORE.SYSTEM.CONST>
0

>  <SCORE.SYSTEM.DIHEDRAL>
9.42397

>  <SCORE.SYSTEM.POLAR>
-2.64269

>  <SCORE.SYSTEM.REPUL>
0.151938

>  <SCORE.SYSTEM.VDW>
-1.55649

>  <SCORE.SYSTEM.norm>
-0.144857

>  <SCORE.heavy>
35

>  <SCORE.norm>
-0.788284

$$$$

  rDOCK(R)          3D
libRbt.so/2013.1/901 2013/11/27
 36 40  0  0  0  0  0  0  0  0999 V2000
    7.3667  -32.1241   -4.4600 C   0  0  0  0  0  0
    6.3190  -31.1291   -3.9453 C   0  0  0  0  0  0
    8.4888  -31.4076   -5.2323 C   0  0  0  0  0  0
    9.3384  -30.6209   -4.3131 N   0  0  0  0  0  0
   10.3481  -29.8637   -5.0812 C   0  0  0  0  0  0
   10.7712  -28.6153   -4.3299 C   0  0  0  0  0  0
   12.0237  -28.4875   -3.6572 C   0  0  0  0  0  0
   12.9987  -29.6423   -3.6329 C   0  0  0  0  0  0
   12.3673  -27.2514   -3.0349 C   0  0  0  0  0  0
   13.6331  -27.1083   -2.3665 N   0  0  0  0  0  0
   13.8520  -27.2391   -1.0899 C   0  0  0  0  0  0
   12.7866  -27.4679   -0.2148 O   0  0  0  0  0  0
   15.2348  -27.0860   -0.5744 C   0  0  0  0  0  0
   15.4925  -26.8744    0.7886 C   0  0  0  0  0  0
   16.7693  -26.7260    1.2271 N   0  0  0  0  0  0
   17.8199  -26.7899    0.3672 C   0  0  0  0  0  0
   19.2094  -26.5758    0.8673 C   0  0  0  0  0  0
   17.5981  -26.9957   -0.9565 N   0  0  0  0  0  0
   16.3389  -27.1484   -1.4407 C   0  0  0  0  0  0
   11.4251  -26.2046   -3.0198 C   0  0  0  0  0  0
   10.2426  -26.3889   -3.6493 N   0  0  0  0  0  0
    9.2039  -25.5527   -3.7777 C   0  0  0  0  0  0
    8.2388  -26.2134   -4.5150 C   0  0  0  0  0  0
    8.6733  -27.4536   -4.8424 N   0  0  0  0  0  0
    9.9042  -27.5157   -4.2893 C   0  0  0  0  0  0
    9.9858  -31.5181   -3.3324 C   0  0  0  0  0  0
    8.9232  -32.2042   -2.4741 C   0  0  0  0  0  0
    7.9481  -32.8823   -3.3393 N   0  0  0  0  0  0
    7.6726  -34.2863   -3.1546 C   0  0  0  0  0  0
    8.5893  -35.0494   -2.7410 O   0  0  0  0  0  0
    6.2859  -34.8573   -3.3826 C   0  0  0  0  0  0
    5.7811  -34.5647   -4.7983 C   0  0  0  0  0  0
    6.0075  -35.8330   -5.6226 C   0  0  0  0  0  0
    6.5187  -36.9083   -4.6686 C   0  0  0  0  0  0
    6.2919  -36.3783   -3.2622 C   0  0  0  0  0  0
   12.9092  -27.5389    0.7866 H   0  0  0  0  0  0
  1  2  1  0  0  0
  1  3  1  0  0  0
  3  4  1  0  0  0
  4  5  1  0  0  0
  5  6  1  0  0  0
  6  7  2  0  0  0
  7  8  1  0  0  0
  7  9  1  0  0  0
  9 10  1  0  0  0
 10 11  2  0  0  0
 11 12  1  0  0  0
 11 13  1  0  0  0
 13 14  2  0  0  0
 14 15  1  0  0  0
 15 16  2  0  0  0
 16 17  1  0  0  0
 16 18  1  0  0  0
 18 19  2  0  0  0
  9 20  2  0  0  0
 20 21  1  0  0  0
 21 22  1  0  0  0
 22 23  2  0  0  0
 23 24  1  0  0  0
 24 25  2  0  0  0
  4 26  1  0  0  0
 26 27  1  0  0  0
 27 28  1  0  0  0
 28 29  1  0  0  0
 29 30  2  0  0  0
 29 31  1  0  0  0
 31 32  1  0  0  0
 32 33  1  0  0  0
 33 34  1  0  0  0
 34 35  1  0  0  0
 28  1  1  0  0  0
 35 31  1  0  0  0
 25  6  1  0  0  0
 19 13  1  0  0  0
 25 21  1  0  0  0
 12 36  1  0  0  0
M  END
>  <CHROM.0>
-133.05272000,61.73429710,-169.58185366,17.66690854,-162.80642731,-52.50021228
-53.55784354

>  <CHROM.1>
153.26238751,105.22069987,-96.93008330,-177.53137619,163.45685156,56.85789692
10.83487270,-29.86992455,-2.90510167,2.57659969,0.52329166,2.92038581

>  <Name>

>  <RI>
0

>  <Rbt.Current_Directory>
/extra/banzai2/j5wagner/CELPP/2016_10_17_rdock_implementation/normal_run/tutorialVideo/tutorial_rdock_implementation/full_week_run/4-docking/5m96/LMCSS_4wqp_docking

>  <Rbt.Executable>
rbdock ($Id: //depot/dev/client3/rdock/2013.1/src/exe/rbdock.cxx#4 $)

>  <Rbt.Library>
libRbt.so (2013.1, Build901 2013/11/27)

>  <Rbt.Parameter_File>
/home/j5wagner/env_00/source/rDock/rDock_2013.1_src//data/scripts/dock.prm

>  <Rbt.Receptor>
/extra/banzai2/j5wagner/CELPP/2016_10_17_rdock_implementation/normal_run/tutorialVideo/tutorial_rdock_implementation/full_week_run/4-docking/5m96/LMCSS_4wqp_tech_prep/rDockGridGenInput.prm

>  <SCORE>
-16.1017

>  <SCORE.INTER>
-14.8563

>  <SCORE.INTER.CONST>
1

>  <SCORE.INTER.POLAR>
-0.498563

>  <SCORE.INTER.REPUL>
0.00810579

>  <SCORE.INTER.ROT>
5

>  <SCORE.INTER.VDW>
-23.6017

>  <SCORE.INTER.norm>
-0.424467

>  <SCORE.INTRA>
0.457161

>  <SCORE.INTRA.DIHEDRAL>
-0.26544

>  <SCORE.INTRA.DIHEDRAL.0>
9.74364

>  <SCORE.INTRA.POLAR>
0

>  <SCORE.INTRA.POLAR.0>
0

>  <SCORE.INTRA.REPUL>
-0.108387

>  <SCORE.INTRA.REPUL.0>
0.108387

>  <SCORE.INTRA.VDW>
1.13182

>  <SCORE.INTRA.VDW.0>
-2.87247

>  <SCORE.INTRA.norm>
0.0130618

>  <SCORE.RESTR>
0

>  <SCORE.RESTR.CAVITY>
0

>  <SCORE.RESTR.norm>
0

>  <SCORE.SYSTEM>
-1.70255

>  <SCORE.SYSTEM.CONST>
0

>  <SCORE.SYSTEM.DIHEDRAL>
4.08899

>  <SCORE.SYSTEM.POLAR>
-1.81364

>  <SCORE.SYSTEM.REPUL>
0.519628

>  <SCORE.SYSTEM.VDW>
-0.17881

>  <SCORE.SYSTEM.norm>
-0.0486443

>  <SCORE.heavy>
35

>  <SCORE.norm>
-0.460049

$$$$

  rDOCK(R)          3D
libRbt.so/2013.1/901 2013/11/27
 36 40  0  0  0  0  0  0  0  0999 V2000
    6.3277  -34.3223   -4.8548 C   0  0  0  0  0  0
    5.1615  -33.6420   -4.1269 C   0  0  0  0  0  0
    7.5826  -33.4311   -4.8587 C   0  0  0  0  0  0
    8.1667  -33.3420   -3.5034 N   0  0  0  0  0  0
    9.3104  -32.4068   -3.5064 C   0  0  0  0  0  0
    9.0099  -31.1861   -2.6568 C   0  0  0  0  0  0
    9.4369  -29.8667   -2.9950 C   0  0  0  0  0  0
   10.2657  -29.6269   -4.2362 C   0  0  0  0  0  0
    9.0494  -28.7676   -2.1735 C   0  0  0  0  0  0
    9.4631  -27.4324   -2.5137 N   0  0  0  0  0  0
    9.1511  -26.7787   -3.5955 C   0  0  0  0  0  0
    8.4055  -27.4004   -4.6008 O   0  0  0  0  0  0
    9.6445  -25.3901   -3.7684 C   0  0  0  0  0  0
   10.3017  -24.7087   -2.7326 C   0  0  0  0  0  0
   10.7306  -23.4336   -2.9187 N   0  0  0  0  0  0
   10.5465  -22.7959   -4.1047 C   0  0  0  0  0  0
   10.9843  -21.3787   -4.2674 C   0  0  0  0  0  0
    9.9152  -23.4335   -5.1239 N   0  0  0  0  0  0
    9.4682  -24.7079   -4.9836 C   0  0  0  0  0  0
    8.3240  -29.0152   -0.9918 C   0  0  0  0  0  0
    7.9687  -30.2880   -0.7052 N   0  0  0  0  0  0
    7.2813  -30.7681    0.3395 C   0  0  0  0  0  0
    7.1783  -32.1358    0.1645 C   0  0  0  0  0  0
    7.7988  -32.5049   -0.9813 N   0  0  0  0  0  0
    8.2685  -31.3399   -1.4782 C   0  0  0  0  0  0
    8.5843  -34.6840   -3.0449 C   0  0  0  0  0  0
    7.3657  -35.6012   -2.9417 C   0  0  0  0  0  0
    6.6440  -35.6137   -4.2217 N   0  0  0  0  0  0
    6.3695  -36.8659   -4.8834 C   0  0  0  0  0  0
    7.1806  -37.8252   -4.7576 O   0  0  0  0  0  0
    5.0932  -37.0796   -5.6747 C   0  0  0  0  0  0
    5.0850  -36.2557   -6.9655 C   0  0  0  0  0  0
    5.4785  -37.2026   -8.1003 C   0  0  0  0  0  0
    5.5883  -38.6029   -7.5048 C   0  0  0  0  0  0
    4.9612  -38.5323   -6.1220 C   0  0  0  0  0  0
    8.1273  -26.9226   -5.4478 H   0  0  0  0  0  0
  1  2  1  0  0  0
  1  3  1  0  0  0
  3  4  1  0  0  0
  4  5  1  0  0  0
  5  6  1  0  0  0
  6  7  2  0  0  0
  7  8  1  0  0  0
  7  9  1  0  0  0
  9 10  1  0  0  0
 10 11  2  0  0  0
 11 12  1  0  0  0
 11 13  1  0  0  0
 13 14  2  0  0  0
 14 15  1  0  0  0
 15 16  2  0  0  0
 16 17  1  0  0  0
 16 18  1  0  0  0
 18 19  2  0  0  0
  9 20  2  0  0  0
 20 21  1  0  0  0
 21 22  1  0  0  0
 22 23  2  0  0  0
 23 24  1  0  0  0
 24 25  2  0  0  0
  4 26  1  0  0  0
 26 27  1  0  0  0
 27 28  1  0  0  0
 28 29  1  0  0  0
 29 30  2  0  0  0
 29 31  1  0  0  0
 31 32  1  0  0  0
 32 33  1  0  0  0
 33 34  1  0  0  0
 34 35  1  0  0  0
 28  1  1  0  0  0
 35 31  1  0  0  0
 25  6  1  0  0  0
 19 13  1  0  0  0
 25 21  1  0  0  0
 12 36  1  0  0  0
M  END
>  <CHROM.0>
-4.78176988,61.00425779,8.84630725,14.65747809,7.57148580,-179.95057279,-51.76263624

>  <CHROM.1>
114.34324826,-142.83709438,62.27652859,178.78852602,-7.70372852,69.97854700
8.03775291,-31.15943855,-3.74398610,2.94712470,1.25437149,1.92821067

>  <Name>

>  <RI>
0

>  <Rbt.Current_Directory>
/extra/banzai2/j5wagner/CELPP/2016_10_17_rdock_implementation/normal_run/tutorialVideo/tutorial_rdock_implementation/full_week_run/4-docking/5m96/LMCSS_4wqp_docking

>  <Rbt.Executable>
rbdock ($Id: //depot/dev/client3/rdock/2013.1/src/exe/rbdock.cxx#4 $)

>  <Rbt.Library>
libRbt.so (2013.1, Build901 2013/11/27)

>  <Rbt.Parameter_File>
/home/j5wagner/env_00/source/rDock/rDock_2013.1_src//data/scripts/dock.prm

>  <Rbt.Receptor>
/extra/banzai2/j5wagner/CELPP/2016_10_17_rdock_implementation/normal_run/tutorialVideo/tutorial_rdock_implementation/full_week_run/4-docking/5m96/LMCSS_4wqp_tech_prep/rDockGridGenInput.prm

>  <SCORE>
-25.0461

>  <SCORE.INTER>
-17.8284

>  <SCORE.INTER.CONST>
1

>  <SCORE.INTER.POLAR>
0

>  <SCORE.INTER.REPUL>
0.0426057

>  <SCORE.INTER.ROT>
5

>  <SCORE.INTER.VDW>
-28.4415

>  <SCORE.INTER.norm>
-0.509384

>  <SCORE.INTRA>
1.74171

>  <SCORE.INTRA.DIHEDRAL>
-0.939834

>  <SCORE.INTRA.DIHEDRAL.0>
9.74364

>  <SCORE.INTRA.POLAR>
0

>  <SCORE.INTRA.POLAR.0>
0

>  <SCORE.INTRA.REPUL>
0.188792

>  <SCORE.INTRA.REPUL.0>
0.108387

>  <SCORE.INTRA.VDW>
1.26767

>  <SCORE.INTRA.VDW.0>
-2.87247

>  <SCORE.INTRA.norm>
0.0497633

>  <SCORE.RESTR>
0

>  <SCORE.RESTR.CAVITY>
0

>  <SCORE.RESTR.norm>
0

>  <SCORE.SYSTEM>
-8.9594

>  <SCORE.SYSTEM.CONST>
0

>  <SCORE.SYSTEM.DIHEDRAL>
0.877006

>  <SCORE.SYSTEM.POLAR>
-2.82142

>  <SCORE.SYSTEM.VDW>
0.194919

>  <SCORE.SYSTEM.norm>
-0.255983

>  <SCORE.heavy>
35

>  <SCORE.norm>
-0.715603

$$$$

  rDOCK(R)          3D
libRbt.so/2013.1/901 2013/11/27
 36 40  0  0  0  0  0  0  0  0999 V2000
   10.2015  -28.6643   -3.4995 C   0  0  0  0  0  0
   11.0099  -29.9677   -3.4863 C   0  0  0  0  0  0
    8.7015  -28.9325   -3.2824 C   0  0  0  0  0  0
    8.4413  -29.3606   -1.8914 N   0  0  0  0  0  0
    7.0144  -29.7071   -1.7277 C   0  0  0  0  0  0
    6.8513  -31.1825   -1.4135 C   0  0  0  0  0  0
    6.6349  -32.1807   -2.4106 C   0  0  0  0  0  0
    6.5185  -31.7928   -3.8669 C   0  0  0  0  0  0
    6.5622  -33.5531   -2.0307 C   0  0  0  0  0  0
    6.3583  -34.5678   -3.0299 N   0  0  0  0  0  0
    7.1831  -34.8891   -3.9845 C   0  0  0  0  0  0
    8.3684  -34.1697   -4.1599 O   0  0  0  0  0  0
    6.8208  -35.9882   -4.9131 C   0  0  0  0  0  0
    6.2357  -37.1775   -4.4524 C   0  0  0  0  0  0
    5.9270  -38.1698   -5.3268 N   0  0  0  0  0  0
    6.1635  -38.0326   -6.6581 C   0  0  0  0  0  0
    5.8593  -39.1566   -7.5912 C   0  0  0  0  0  0
    6.7270  -36.8909   -7.1301 N   0  0  0  0  0  0
    7.0536  -35.8726   -6.2936 C   0  0  0  0  0  0
    6.6177  -33.8917   -0.6647 C   0  0  0  0  0  0
    6.7965  -32.9031    0.2405 N   0  0  0  0  0  0
    6.8878  -32.9734    1.5751 C   0  0  0  0  0  0
    7.0734  -31.6840    2.0384 C   0  0  0  0  0  0
    7.0963  -30.8163    0.9988 N   0  0  0  0  0  0
    6.9216  -31.6090   -0.0810 C   0  0  0  0  0  0
    8.8348  -28.2890   -0.9519 C   0  0  0  0  0  0
   10.3370  -28.0277   -1.0603 C   0  0  0  0  0  0
   10.6923  -27.7458   -2.4581 N   0  0  0  0  0  0
   11.3989  -26.5335   -2.7931 C   0  0  0  0  0  0
   11.2035  -25.4917   -2.1073 O   0  0  0  0  0  0
   12.4234  -26.4980   -3.9110 C   0  0  0  0  0  0
   11.7560  -26.5235   -5.2890 C   0  0  0  0  0  0
   11.7330  -25.0818   -5.7992 C   0  0  0  0  0  0
   12.4995  -24.2318   -4.7904 C   0  0  0  0  0  0
   13.2290  -25.2027   -3.8764 C   0  0  0  0  0  0
    8.6538  -33.4283   -3.5339 H   0  0  0  0  0  0
  1  2  1  0  0  0
  1  3  1  0  0  0
  3  4  1  0  0  0
  4  5  1  0  0  0
  5  6  1  0  0  0
  6  7  2  0  0  0
  7  8  1  0  0  0
  7  9  1  0  0  0
  9 10  1  0  0  0
 10 11  2  0  0  0
 11 12  1  0  0  0
 11 13  1  0  0  0
 13 14  2  0  0  0
 14 15  1  0  0  0
 15 16  2  0  0  0
 16 17  1  0  0  0
 16 18  1  0  0  0
 18 19  2  0  0  0
  9 20  2  0  0  0
 20 21  1  0  0  0
 21 22  1  0  0  0
 22 23  2  0  0  0
 23 24  1  0  0  0
 24 25  2  0  0  0
  4 26  1  0  0  0
 26 27  1  0  0  0
 27 28  1  0  0  0
 28 29  1  0  0  0
 29 30  2  0  0  0
 29 31  1  0  0  0
 31 32  1  0  0  0
 32 33  1  0  0  0
 33 34  1  0  0  0
 34 35  1  0  0  0
 28  1  1  0  0  0
 35 31  1  0  0  0
 25  6  1  0  0  0
 19 13  1  0  0  0
 25 21  1  0  0  0
 12 36  1  0  0  0
M  END
>  <CHROM.0>
-11.07751104,-46.29245556,0.70981747,13.96244868,8.51847465,64.50472662,-53.06225985

>  <CHROM.1>
115.18664775,-92.73810822,65.61665697,3.86464512,-42.19965606,74.58837617
8.45402195,-31.29959878,-3.05780121,-0.65521389,-0.98685308,-2.16996574

>  <Name>

>  <RI>
0

>  <Rbt.Current_Directory>
/extra/banzai2/j5wagner/CELPP/2016_10_17_rdock_implementation/normal_run/tutorialVideo/tutorial_rdock_implementation/full_week_run/4-docking/5m96/LMCSS_4wqp_docking

>  <Rbt.Executable>
rbdock ($Id: //depot/dev/client3/rdock/2013.1/src/exe/rbdock.cxx#4 $)

>  <Rbt.Library>
libRbt.so (2013.1, Build901 2013/11/27)

>  <Rbt.Parameter_File>
/home/j5wagner/env_00/source/rDock/rDock_2013.1_src//data/scripts/dock.prm

>  <Rbt.Receptor>
/extra/banzai2/j5wagner/CELPP/2016_10_17_rdock_implementation/normal_run/tutorialVideo/tutorial_rdock_implementation/full_week_run/4-docking/5m96/LMCSS_4wqp_tech_prep/rDockGridGenInput.prm

>  <SCORE>
-21.3701

>  <SCORE.INTER>
-15.9745

>  <SCORE.INTER.CONST>
1

>  <SCORE.INTER.POLAR>
0

>  <SCORE.INTER.REPUL>
0

>  <SCORE.INTER.ROT>
5

>  <SCORE.INTER.VDW>
-26.3745

>  <SCORE.INTER.norm>
-0.456415

>  <SCORE.INTRA>
2.42705

>  <SCORE.INTRA.DIHEDRAL>
4.90305

>  <SCORE.INTRA.DIHEDRAL.0>
9.74364

>  <SCORE.INTRA.POLAR>
0

>  <SCORE.INTRA.POLAR.0>
0

>  <SCORE.INTRA.REPUL>
-0.108387

>  <SCORE.INTRA.REPUL.0>
0.108387

>  <SCORE.INTRA.VDW>
0.517462

>  <SCORE.INTRA.VDW.0>
-2.87247

>  <SCORE.INTRA.norm>
0.0693443

>  <SCORE.RESTR>
0

>  <SCORE.RESTR.CAVITY>
0

>  <SCORE.RESTR.norm>
0

>  <SCORE.SYSTEM>
-7.82265

>  <SCORE.SYSTEM.CONST>
0

>  <SCORE.SYSTEM.DIHEDRAL>
1.78527

>  <SCORE.SYSTEM.POLAR>
-2.79729

>  <SCORE.SYSTEM.VDW>
0.795487

>  <SCORE.SYSTEM.norm>
-0.223504

>  <SCORE.heavy>
35

>  <SCORE.norm>
-0.610575

$$$$

  rDOCK(R)          3D
libRbt.so/2013.1/901 2013/11/27
 36 40  0  0  0  0  0  0  0  0999 V2000
    9.6992  -28.6824   -3.5607 C   0  0  0  0  0  0
   10.6043  -29.9162   -3.4547 C   0  0  0  0  0  0
    8.2343  -29.0326   -3.2436 C   0  0  0  0  0  0
    8.0656  -29.3294   -1.8051 N   0  0  0  0  0  0
    6.6773  -29.7576   -1.5367 C   0  0  0  0  0  0
    6.6197  -31.2455   -1.2450 C   0  0  0  0  0  0
    6.4324  -32.2389   -2.2528 C   0  0  0  0  0  0
    6.2403  -31.8350   -3.6967 C   0  0  0  0  0  0
    6.4608  -33.6192   -1.8966 C   0  0  0  0  0  0
    6.2869  -34.6282   -2.9072 N   0  0  0  0  0  0
    7.0818  -34.8612   -3.9114 C   0  0  0  0  0  0
    8.1924  -34.0419   -4.1323 O   0  0  0  0  0  0
    6.7612  -35.9687   -4.8452 C   0  0  0  0  0  0
    7.0091  -35.8648   -6.2224 C   0  0  0  0  0  0
    6.6928  -36.8921   -7.0525 N   0  0  0  0  0  0
    6.1447  -38.0398   -6.5735 C   0  0  0  0  0  0
    5.7622  -39.1345   -7.5127 C   0  0  0  0  0  0
    5.8964  -38.1669   -5.2445 N   0  0  0  0  0  0
    6.1948  -37.1660   -4.3770 C   0  0  0  0  0  0
    6.5858  -33.9762   -0.5398 C   0  0  0  0  0  0
    6.7330  -32.9934    0.3772 N   0  0  0  0  0  0
    6.8755  -33.0798    1.7064 C   0  0  0  0  0  0
    6.9948  -31.7890    2.1872 C   0  0  0  0  0  0
    6.9257  -30.9045    1.1640 N   0  0  0  0  0  0
    6.7639  -31.6887    0.0760 C   0  0  0  0  0  0
    8.4153  -28.1396   -1.0002 C   0  0  0  0  0  0
    9.8875  -27.7846   -1.2088 C   0  0  0  0  0  0
   10.1616  -27.6268   -2.6438 N   0  0  0  0  0  0
   10.7594  -26.4092   -3.1350 C   0  0  0  0  0  0
   10.5140  -25.3176   -2.5501 O   0  0  0  0  0  0
   11.7307  -26.4185   -4.2999 C   0  0  0  0  0  0
   11.6767  -25.1079   -5.0900 C   0  0  0  0  0  0
   12.8598  -24.2580   -4.6238 C   0  0  0  0  0  0
   13.6814  -25.1129   -3.6638 C   0  0  0  0  0  0
   13.1716  -26.5371   -3.8124 C   0  0  0  0  0  0
    8.4729  -33.3175   -3.4846 H   0  0  0  0  0  0
  1  2  1  0  0  0
  1  3  1  0  0  0
  3  4  1  0  0  0
  4  5  1  0  0  0
  5  6  1  0  0  0
  6  7  2  0  0  0
  7  8  1  0  0  0
  7  9  1  0  0  0
  9 10  1  0  0  0
 10 11  2  0  0  0
 11 12  1  0  0  0
 11 13  1  0  0  0
 13 14  2  0  0  0
 14 15  1  0  0  0
 15 16  2  0  0  0
 16 17  1  0  0  0
 16 18  1  0  0  0
 18 19  2  0  0  0
  9 20  2  0  0  0
 20 21  1  0  0  0
 21 22  1  0  0  0
 22 23  2  0  0  0
 23 24  1  0  0  0
 24 25  2  0  0  0
  4 26  1  0  0  0
 26 27  1  0  0  0
 27 28  1  0  0  0
 28 29  1  0  0  0
 29 30  2  0  0  0
 29 31  1  0  0  0
 31 32  1  0  0  0
 32 33  1  0  0  0
 33 34  1  0  0  0
 34 35  1  0  0  0
 28  1  1  0  0  0
 35 31  1  0  0  0
 25  6  1  0  0  0
 19 13  1  0  0  0
 25 21  1  0  0  0
 12 36  1  0  0  0
M  END
>  <CHROM.0>
23.39182779,62.29893440,-0.06632125,-120.09386099,10.78412170,-53.21846077
-53.73248528

>  <CHROM.1>
107.67937461,-90.07442797,64.05081183,6.59279392,143.31461918,150.63683526
8.30032722,-31.29140545,-2.95647007,-0.69451890,-0.96652934,-2.22302774

>  <Name>

>  <RI>
0

>  <Rbt.Current_Directory>
/extra/banzai2/j5wagner/CELPP/2016_10_17_rdock_implementation/normal_run/tutorialVideo/tutorial_rdock_implementation/full_week_run/4-docking/5m96/LMCSS_4wqp_docking

>  <Rbt.Executable>
rbdock ($Id: //depot/dev/client3/rdock/2013.1/src/exe/rbdock.cxx#4 $)

>  <Rbt.Library>
libRbt.so (2013.1, Build901 2013/11/27)

>  <Rbt.Parameter_File>
/home/j5wagner/env_00/source/rDock/rDock_2013.1_src//data/scripts/dock.prm

>  <Rbt.Receptor>
/extra/banzai2/j5wagner/CELPP/2016_10_17_rdock_implementation/normal_run/tutorialVideo/tutorial_rdock_implementation/full_week_run/4-docking/5m96/LMCSS_4wqp_tech_prep/rDockGridGenInput.prm

>  <SCORE>
-17.7258

>  <SCORE.INTER>
-12.499

>  <SCORE.INTER.CONST>
1

>  <SCORE.INTER.POLAR>
0

>  <SCORE.INTER.REPUL>
0

>  <SCORE.INTER.ROT>
5

>  <SCORE.INTER.VDW>
-22.899

>  <SCORE.INTER.norm>
-0.357114

>  <SCORE.INTRA>
2.20363

>  <SCORE.INTRA.DIHEDRAL>
5.13528

>  <SCORE.INTRA.DIHEDRAL.0>
9.74364

>  <SCORE.INTRA.POLAR>
0

>  <SCORE.INTRA.POLAR.0>
0

>  <SCORE.INTRA.REPUL>
-0.108387

>  <SCORE.INTRA.REPUL.0>
0.108387

>  <SCORE.INTRA.VDW>
0.177933

>  <SCORE.INTRA.VDW.0>
-2.87247

>  <SCORE.INTRA.norm>
0.062961

>  <SCORE.RESTR>
0

>  <SCORE.RESTR.CAVITY>
0

>  <SCORE.RESTR.norm>
0

>  <SCORE.SYSTEM>
-7.43046

>  <SCORE.SYSTEM.CONST>
0

>  <SCORE.SYSTEM.DIHEDRAL>
4.94657

>  <SCORE.SYSTEM.POLAR>
-2.77409

>  <SCORE.SYSTEM.REPUL>
0.00772132

>  <SCORE.SYSTEM.VDW>
-0.510433

>  <SCORE.SYSTEM.norm>
-0.212299

>  <SCORE.heavy>
35

>  <SCORE.norm>
-0.506452

$$$$

  rDOCK(R)          3D
libRbt.so/2013.1/901 2013/11/27
 36 40  0  0  0  0  0  0  0  0999 V2000
   12.2326  -28.2934   -1.5982 C   0  0  0  0  0  0
   11.2523  -28.0177   -0.4513 C   0  0  0  0  0  0
   11.5255  -28.9584   -2.7927 C   0  0  0  0  0  0
   10.6282  -27.9992   -3.4713 N   0  0  0  0  0  0
    9.8858  -28.6793   -4.5525 C   0  0  0  0  0  0
    8.7655  -29.5300   -3.9837 C   0  0  0  0  0  0
    8.3589  -30.7765   -4.5481 C   0  0  0  0  0  0
    9.0247  -31.3015   -5.7995 C   0  0  0  0  0  0
    7.3423  -31.5432   -3.9064 C   0  0  0  0  0  0
    6.9354  -32.8072   -4.4598 N   0  0  0  0  0  0
    6.8796  -33.9449   -3.8293 C   0  0  0  0  0  0
    7.3129  -34.0346   -2.5036 O   0  0  0  0  0  0
    6.4047  -35.1498   -4.5531 C   0  0  0  0  0  0
    6.3532  -36.4076   -3.9332 C   0  0  0  0  0  0
    5.9250  -37.4937   -4.6271 N   0  0  0  0  0  0
    5.5282  -37.3887   -5.9227 C   0  0  0  0  0  0
    5.1076  -38.6056   -6.6769 C   0  0  0  0  0  0
    5.5664  -36.1826   -6.5455 N   0  0  0  0  0  0
    5.9883  -35.0696   -5.8923 C   0  0  0  0  0  0
    6.6948  -31.0140   -2.7731 C   0  0  0  0  0  0
    7.1013  -29.8157   -2.2961 N   0  0  0  0  0  0
    6.6527  -29.1187   -1.2437 C   0  0  0  0  0  0
    7.4020  -27.9587   -1.1751 C   0  0  0  0  0  0
    8.3105  -27.9332   -2.1792 N   0  0  0  0  0  0
    8.0872  -29.0902   -2.8397 C   0  0  0  0  0  0
   11.4125  -26.8644   -4.0033 C   0  0  0  0  0  0
   12.0796  -26.1088   -2.8541 C   0  0  0  0  0  0
   12.8707  -27.0416   -2.0396 N   0  0  0  0  0  0
   14.2674  -26.7786   -1.7924 C   0  0  0  0  0  0
   14.9499  -26.1768   -2.6676 O   0  0  0  0  0  0
   14.9215  -27.1499   -0.4752 C   0  0  0  0  0  0
   16.4489  -27.1541   -0.5852 C   0  0  0  0  0  0
   16.9408  -25.8287   -0.0018 C   0  0  0  0  0  0
   15.7247  -25.1055    0.5689 C   0  0  0  0  0  0
   14.5974  -26.1243    0.6070 C   0  0  0  0  0  0
    7.6603  -33.2366   -1.9883 H   0  0  0  0  0  0
  1  2  1  0  0  0
  1  3  1  0  0  0
  3  4  1  0  0  0
  4  5  1  0  0  0
  5  6  1  0  0  0
  6  7  2  0  0  0
  7  8  1  0  0  0
  7  9  1  0  0  0
  9 10  1  0  0  0
 10 11  2  0  0  0
 11 12  1  0  0  0
 11 13  1  0  0  0
 13 14  2  0  0  0
 14 15  1  0  0  0
 15 16  2  0  0  0
 16 17  1  0  0  0
 16 18  1  0  0  0
 18 19  2  0  0  0
  9 20  2  0  0  0
 20 21  1  0  0  0
 21 22  1  0  0  0
 22 23  2  0  0  0
 23 24  1  0  0  0
 24 25  2  0  0  0
  4 26  1  0  0  0
 26 27  1  0  0  0
 27 28  1  0  0  0
 28 29  1  0  0  0
 29 30  2  0  0  0
 29 31  1  0  0  0
 31 32  1  0  0  0
 32 33  1  0  0  0
 33 34  1  0  0  0
 34 35  1  0  0  0
 28  1  1  0  0  0
 35 31  1  0  0  0
 25  6  1  0  0  0
 19 13  1  0  0  0
 25 21  1  0  0  0
 12 36  1  0  0  0
M  END
>  <CHROM.0>
-8.84191598,175.83310881,6.00250959,-121.74728843,8.29490893,-53.08983571
-54.20226317

>  <CHROM.1>
76.22900329,-145.00120190,127.19003184,1.25231882,178.50506275,163.55154586
9.76644999,-30.29092150,-3.00308465,-0.87744808,0.08139989,-2.79789469

>  <Name>

>  <RI>
0

>  <Rbt.Current_Directory>
/extra/banzai2/j5wagner/CELPP/2016_10_17_rdock_implementation/normal_run/tutorialVideo/tutorial_rdock_implementation/full_week_run/4-docking/5m96/LMCSS_4wqp_docking

>  <Rbt.Executable>
rbdock ($Id: //depot/dev/client3/rdock/2013.1/src/exe/rbdock.cxx#4 $)

>  <Rbt.Library>
libRbt.so (2013.1, Build901 2013/11/27)

>  <Rbt.Parameter_File>
/home/j5wagner/env_00/source/rDock/rDock_2013.1_src//data/scripts/dock.prm

>  <Rbt.Receptor>
/extra/banzai2/j5wagner/CELPP/2016_10_17_rdock_implementation/normal_run/tutorialVideo/tutorial_rdock_implementation/full_week_run/4-docking/5m96/LMCSS_4wqp_tech_prep/rDockGridGenInput.prm

>  <SCORE>
-22.6716

>  <SCORE.INTER>
-18.0464

>  <SCORE.INTER.CONST>
1

>  <SCORE.INTER.POLAR>
0

>  <SCORE.INTER.REPUL>
0.0166795

>  <SCORE.INTER.ROT>
5

>  <SCORE.INTER.VDW>
-28.5298

>  <SCORE.INTER.norm>
-0.515611

>  <SCORE.INTRA>
0.189423

>  <SCORE.INTRA.DIHEDRAL>
-2.93933

>  <SCORE.INTRA.DIHEDRAL.0>
9.74364

>  <SCORE.INTRA.POLAR>
0

>  <SCORE.INTRA.POLAR.0>
0

>  <SCORE.INTRA.REPUL>
0.302238

>  <SCORE.INTRA.REPUL.0>
0.108387

>  <SCORE.INTRA.VDW>
0.147896

>  <SCORE.INTRA.VDW.0>
-2.87247

>  <SCORE.INTRA.norm>
0.00541208

>  <SCORE.RESTR>
0

>  <SCORE.RESTR.CAVITY>
0

>  <SCORE.RESTR.norm>
0

>  <SCORE.SYSTEM>
-4.81467

>  <SCORE.SYSTEM.CONST>
0

>  <SCORE.SYSTEM.DIHEDRAL>
4.19476

>  <SCORE.SYSTEM.POLAR>
-2.11977

>  <SCORE.SYSTEM.REPUL>
0.00540476

>  <SCORE.SYSTEM.VDW>
0.268145

>  <SCORE.SYSTEM.norm>
-0.137562

>  <SCORE.heavy>
35

>  <SCORE.norm>
-0.647761

$$$$

  rDOCK(R)          3D
libRbt.so/2013.1/901 2013/11/27
 36 40  0  0  0  0  0  0  0  0999 V2000
    9.7941  -25.1246   -4.5183 C   0  0  0  0  0  0
    8.6886  -25.4354   -5.5351 C   0  0  0  0  0  0
    9.9990  -26.2933   -3.5379 C   0  0  0  0  0  0
   10.6208  -27.4478   -4.2209 N   0  0  0  0  0  0
   10.7202  -28.5916   -3.2911 C   0  0  0  0  0  0
    9.4002  -29.3352   -3.2093 C   0  0  0  0  0  0
    9.1006  -30.4957   -3.9846 C   0  0  0  0  0  0
   10.1054  -31.0293   -4.9800 C   0  0  0  0  0  0
    7.8601  -31.1718   -3.7921 C   0  0  0  0  0  0
    7.5549  -32.3502   -4.5587 N   0  0  0  0  0  0
    6.5802  -33.1846   -4.3383 C   0  0  0  0  0  0
    5.7555  -33.0214   -3.2218 O   0  0  0  0  0  0
    6.3944  -34.3371   -5.2540 C   0  0  0  0  0  0
    7.3643  -34.6829   -6.2073 C   0  0  0  0  0  0
    7.1587  -35.7365   -7.0393 N   0  0  0  0  0  0
    6.0252  -36.4822   -6.9624 C   0  0  0  0  0  0
    5.8024  -37.6048   -7.9200 C   0  0  0  0  0  0
    5.0716  -36.1701   -6.0474 N   0  0  0  0  0  0
    5.2329  -35.1250   -5.1958 C   0  0  0  0  0  0
    6.9135  -30.6300   -2.9009 C   0  0  0  0  0  0
    7.2385  -29.5128   -2.2119 N   0  0  0  0  0  0
    6.5209  -28.8236   -1.3149 C   0  0  0  0  0  0
    7.3033  -27.7630   -0.8968 C   0  0  0  0  0  0
    8.4999  -27.7912   -1.5304 N   0  0  0  0  0  0
    8.4129  -28.8792   -2.3263 C   0  0  0  0  0  0
   11.9538  -27.0705   -4.7370 C   0  0  0  0  0  0
   11.8133  -25.9625   -5.7808 C   0  0  0  0  0  0
   11.0614  -24.8360   -5.2107 N   0  0  0  0  0  0
   11.6242  -23.5078   -5.2321 C   0  0  0  0  0  0
   12.8760  -23.3630   -5.1554 O   0  0  0  0  0  0
   10.7505  -22.2810   -5.4117 C   0  0  0  0  0  0
   10.6225  -21.4841   -4.1104 C   0  0  0  0  0  0
   11.6018  -20.3133   -4.2072 C   0  0  0  0  0  0
   12.2061  -20.3426   -5.6078 C   0  0  0  0  0  0
   11.3637  -21.3131   -6.4193 C   0  0  0  0  0  0
    5.0053  -33.6624   -2.9998 H   0  0  0  0  0  0
  1  2  1  0  0  0
  1  3  1  0  0  0
  3  4  1  0  0  0
  4  5  1  0  0  0
  5  6  1  0  0  0
  6  7  2  0  0  0
  7  8  1  0  0  0
  7  9  1  0  0  0
  9 10  1  0  0  0
 10 11  2  0  0  0
 11 12  1  0  0  0
 11 13  1  0  0  0
 13 14  2  0  0  0
 14 15  1  0  0  0
 15 16  2  0  0  0
 16 17  1  0  0  0
 16 18  1  0  0  0
 18 19  2  0  0  0
  9 20  2  0  0  0
 20 21  1  0  0  0
 21 22  1  0  0  0
 22 23  2  0  0  0
 23 24  1  0  0  0
 24 25  2  0  0  0
  4 26  1  0  0  0
 26 27  1  0  0  0
 27 28  1  0  0  0
 28 29  1  0  0  0
 29 30  2  0  0  0
 29 31  1  0  0  0
 31 32  1  0  0  0
 32 33  1  0  0  0
 33 34  1  0  0  0
 34 35  1  0  0  0
 28  1  1  0  0  0
 35 31  1  0  0  0
 25  6  1  0  0  0
 19 13  1  0  0  0
 25 21  1  0  0  0
 12 36  1  0  0  0
M  END
>  <CHROM.0>
34.86812694,-46.10772715,-153.54809530,24.70729296,-134.12319415,65.83464952
175.40299654

>  <CHROM.1>
81.52157440,95.72381131,167.79961068,-178.14571063,11.07167171,107.73951733
8.88889782,-28.72802888,-4.50061547,0.80823645,0.98100053,0.72381308

>  <Name>

>  <RI>
0

>  <Rbt.Current_Directory>
/extra/banzai2/j5wagner/CELPP/2016_10_17_rdock_implementation/normal_run/tutorialVideo/tutorial_rdock_implementation/full_week_run/4-docking/5m96/LMCSS_4wqp_docking

>  <Rbt.Executable>
rbdock ($Id: //depot/dev/client3/rdock/2013.1/src/exe/rbdock.cxx#4 $)

>  <Rbt.Library>
libRbt.so (2013.1, Build901 2013/11/27)

>  <Rbt.Parameter_File>
/home/j5wagner/env_00/source/rDock/rDock_2013.1_src//data/scripts/dock.prm

>  <Rbt.Receptor>
/extra/banzai2/j5wagner/CELPP/2016_10_17_rdock_implementation/normal_run/tutorialVideo/tutorial_rdock_implementation/full_week_run/4-docking/5m96/LMCSS_4wqp_tech_prep/rDockGridGenInput.prm

>  <SCORE>
-7.83796

>  <SCORE.INTER>
-6.40844

>  <SCORE.INTER.CONST>
1

>  <SCORE.INTER.POLAR>
0

>  <SCORE.INTER.REPUL>
0.0877493

>  <SCORE.INTER.ROT>
5

>  <SCORE.INTER.VDW>
-17.2472

>  <SCORE.INTER.norm>
-0.183098

>  <SCORE.INTRA>
-1.37387

>  <SCORE.INTRA.DIHEDRAL>
-3.99555

>  <SCORE.INTRA.DIHEDRAL.0>
9.74364

>  <SCORE.INTRA.POLAR>
0

>  <SCORE.INTRA.POLAR.0>
0

>  <SCORE.INTRA.REPUL>
-0.108387

>  <SCORE.INTRA.REPUL.0>
0.108387

>  <SCORE.INTRA.VDW>
1.16584

>  <SCORE.INTRA.VDW.0>
-2.87247

>  <SCORE.INTRA.norm>
-0.0392535

>  <SCORE.RESTR>
0

>  <SCORE.RESTR.CAVITY>
0

>  <SCORE.RESTR.norm>
0

>  <SCORE.SYSTEM>
-0.0556473

>  <SCORE.SYSTEM.CONST>
0

>  <SCORE.SYSTEM.DIHEDRAL>
7.02572

>  <SCORE.SYSTEM.POLAR>
-0.872714

>  <SCORE.SYSTEM.VDW>
-0.601282

>  <SCORE.SYSTEM.norm>
-0.00158992

>  <SCORE.heavy>
35

>  <SCORE.norm>
-0.223942

$$$$

  rDOCK(R)          3D
libRbt.so/2013.1/901 2013/11/27
 36 40  0  0  0  0  0  0  0  0999 V2000
   11.7382  -25.6579   -4.2370 C   0  0  0  0  0  0
   12.4056  -25.7192   -2.8574 C   0  0  0  0  0  0
   11.5769  -27.0628   -4.8448 C   0  0  0  0  0  0
   10.5477  -27.8345   -4.1161 N   0  0  0  0  0  0
   10.4755  -29.2104   -4.6494 C   0  0  0  0  0  0
    9.5103  -30.0529   -3.8365 C   0  0  0  0  0  0
    8.7741  -31.1497   -4.3775 C   0  0  0  0  0  0
    8.9014  -31.5072   -5.8407 C   0  0  0  0  0  0
    7.9414  -31.9303   -3.5230 C   0  0  0  0  0  0
    7.2064  -33.0462   -4.0559 N   0  0  0  0  0  0
    7.6835  -34.2262   -4.3294 C   0  0  0  0  0  0
    9.0499  -34.4816   -4.1848 O   0  0  0  0  0  0
    6.7689  -35.2731   -4.8478 C   0  0  0  0  0  0
    5.3784  -35.1830   -4.6820 C   0  0  0  0  0  0
    4.5691  -36.1644   -5.1576 N   0  0  0  0  0  0
    5.0793  -37.2419   -5.8101 C   0  0  0  0  0  0
    4.1724  -38.3295   -6.2805 C   0  0  0  0  0  0
    6.4213  -37.3524   -5.9857 N   0  0  0  0  0  0
    7.2693  -36.3968   -5.5263 C   0  0  0  0  0  0
    7.7919  -31.5501   -2.1750 C   0  0  0  0  0  0
    8.4919  -30.4859   -1.7212 N   0  0  0  0  0  0
    8.5228  -29.9432   -0.4968 C   0  0  0  0  0  0
    9.3991  -28.8749   -0.5477 C   0  0  0  0  0  0
    9.9096  -28.7526   -1.7961 N   0  0  0  0  0  0
    9.3237  -29.7600   -2.4794 C   0  0  0  0  0  0
    9.2381  -27.1573   -4.2252 C   0  0  0  0  0  0
    9.3077  -25.7801   -3.5655 C   0  0  0  0  0  0
   10.4193  -25.0099   -4.1404 N   0  0  0  0  0  0
   10.1781  -23.7023   -4.7002 C   0  0  0  0  0  0
    9.0655  -23.4553   -5.2432 O   0  0  0  0  0  0
   11.2076  -22.5935   -4.5929 C   0  0  0  0  0  0
   12.4435  -22.8864   -5.4482 C   0  0  0  0  0  0
   12.2920  -22.0812   -6.7397 C   0  0  0  0  0  0
   11.0430  -21.2177   -6.5915 C   0  0  0  0  0  0
   10.6521  -21.2754   -5.1238 C   0  0  0  0  0  0
    9.6970  -33.7956   -3.8192 H   0  0  0  0  0  0
  1  2  1  0  0  0
  1  3  1  0  0  0
  3  4  1  0  0  0
  4  5  1  0  0  0
  5  6  1  0  0  0
  6  7  2  0  0  0
  7  8  1  0  0  0
  7  9  1  0  0  0
  9 10  1  0  0  0
 10 11  2  0  0  0
 11 12  1  0  0  0
 11 13  1  0  0  0
 13 14  2  0  0  0
 14 15  1  0  0  0
 15 16  2  0  0  0
 16 17  1  0  0  0
 16 18  1  0  0  0
 18 19  2  0  0  0
  9 20  2  0  0  0
 20 21  1  0  0  0
 21 22  1  0  0  0
 22 23  2  0  0  0
 23 24  1  0  0  0
 24 25  2  0  0  0
  4 26  1  0  0  0
 26 27  1  0  0  0
 27 28  1  0  0  0
 28 29  1  0  0  0
 29 30  2  0  0  0
 29 31  1  0  0  0
 31 32  1  0  0  0
 32 33  1  0  0  0
 33 34  1  0  0  0
 34 35  1  0  0  0
 28  1  1  0  0  0
 35 31  1  0  0  0
 25  6  1  0  0  0
 19 13  1  0  0  0
 25 21  1  0  0  0
 12 36  1  0  0  0
M  END
>  <CHROM.0>
10.54523732,59.49863029,4.60177576,-120.35812046,-176.45124597,64.24646691
55.77862011

>  <CHROM.1>
175.12458498,150.97362111,78.30718822,3.66798971,-19.39399955,69.03501682
9.02390336,-29.43325376,-4.27346219,-0.46889754,1.14930414,2.08517706

>  <Name>

>  <RI>
0

>  <Rbt.Current_Directory>
/extra/banzai2/j5wagner/CELPP/2016_10_17_rdock_implementation/normal_run/tutorialVideo/tutorial_rdock_implementation/full_week_run/4-docking/5m96/LMCSS_4wqp_docking

>  <Rbt.Executable>
rbdock ($Id: //depot/dev/client3/rdock/2013.1/src/exe/rbdock.cxx#4 $)

>  <Rbt.Library>
libRbt.so (2013.1, Build901 2013/11/27)

>  <Rbt.Parameter_File>
/home/j5wagner/env_00/source/rDock/rDock_2013.1_src//data/scripts/dock.prm

>  <Rbt.Receptor>
/extra/banzai2/j5wagner/CELPP/2016_10_17_rdock_implementation/normal_run/tutorialVideo/tutorial_rdock_implementation/full_week_run/4-docking/5m96/LMCSS_4wqp_tech_prep/rDockGridGenInput.prm

>  <SCORE>
-15.6535

>  <SCORE.INTER>
-13.9225

>  <SCORE.INTER.CONST>
1

>  <SCORE.INTER.POLAR>
-0.472198

>  <SCORE.INTER.REPUL>
0

>  <SCORE.INTER.ROT>
5

>  <SCORE.INTER.VDW>
-22.717

>  <SCORE.INTER.norm>
-0.397786

>  <SCORE.INTRA>
2.41056

>  <SCORE.INTRA.DIHEDRAL>
-1.00913

>  <SCORE.INTRA.DIHEDRAL.0>
9.74364

>  <SCORE.INTRA.POLAR>
0

>  <SCORE.INTRA.POLAR.0>
0

>  <SCORE.INTRA.REPUL>
0.324342

>  <SCORE.INTRA.REPUL.0>
0.108387

>  <SCORE.INTRA.VDW>
1.29341

>  <SCORE.INTRA.VDW.0>
-2.87247

>  <SCORE.INTRA.norm>
0.068873

>  <SCORE.RESTR>
0

>  <SCORE.RESTR.CAVITY>
0

>  <SCORE.RESTR.norm>
0

>  <SCORE.SYSTEM>
-4.14158

>  <SCORE.SYSTEM.CONST>
0

>  <SCORE.SYSTEM.DIHEDRAL>
3.94072

>  <SCORE.SYSTEM.POLAR>
-1.56107

>  <SCORE.SYSTEM.REPUL>
0.0232129

>  <SCORE.SYSTEM.VDW>
-0.920373

>  <SCORE.SYSTEM.norm>
-0.118331

>  <SCORE.heavy>
35

>  <SCORE.norm>
-0.447244

$$$$

  rDOCK(R)          3D
libRbt.so/2013.1/901 2013/11/27
 36 40  0  0  0  0  0  0  0  0999 V2000
   13.1302  -28.4968   -2.5313 C   0  0  0  0  0  0
   12.7076  -29.2244   -1.2489 C   0  0  0  0  0  0
   12.1205  -28.7329   -3.6688 C   0  0  0  0  0  0
   10.8517  -28.0236   -3.3993 N   0  0  0  0  0  0
    9.8627  -28.3397   -4.4503 C   0  0  0  0  0  0
    8.8240  -29.3185   -3.9352 C   0  0  0  0  0  0
    8.5623  -30.5824   -4.5448 C   0  0  0  0  0  0
    9.3079  -30.9974   -5.7925 C   0  0  0  0  0  0
    7.6163  -31.4692   -3.9517 C   0  0  0  0  0  0
    7.3559  -32.7509   -4.5508 N   0  0  0  0  0  0
    6.8397  -33.7897   -3.9597 C   0  0  0  0  0  0
    6.5552  -33.7498   -2.5920 O   0  0  0  0  0  0
    6.6121  -35.0285   -4.7439 C   0  0  0  0  0  0
    6.9048  -35.0956   -6.1147 C   0  0  0  0  0  0
    6.6735  -36.2409   -6.8069 N   0  0  0  0  0  0
    6.1689  -37.3436   -6.1933 C   0  0  0  0  0  0
    5.8790  -38.5738   -6.9866 C   0  0  0  0  0  0
    5.8788  -37.3058   -4.8673 N   0  0  0  0  0  0
    6.0922  -36.1827   -4.1349 C   0  0  0  0  0  0
    6.8912  -31.0445   -2.8214 C   0  0  0  0  0  0
    7.1597  -29.8258   -2.3005 N   0  0  0  0  0  0
    6.6169  -29.2114   -1.2411 C   0  0  0  0  0  0
    7.2398  -27.9829   -1.1204 C   0  0  0  0  0  0
    8.1637  -27.8331   -2.0992 N   0  0  0  0  0  0
    8.0773  -28.9862   -2.7975 C   0  0  0  0  0  0
   11.0941  -26.5671   -3.3244 C   0  0  0  0  0  0
   12.0316  -26.2548   -2.1581 C   0  0  0  0  0  0
   13.2603  -27.0513   -2.2818 N   0  0  0  0  0  0
   14.5470  -26.3989   -2.2778 C   0  0  0  0  0  0
   14.6547  -25.2362   -2.7576 O   0  0  0  0  0  0
   15.7632  -27.0518   -1.6491 C   0  0  0  0  0  0
   16.8982  -26.0456   -1.4386 C   0  0  0  0  0  0
   16.8547  -25.6268    0.0318 C   0  0  0  0  0  0
   15.7882  -26.4780    0.7141 C   0  0  0  0  0  0
   15.4395  -27.5920   -0.2593 C   0  0  0  0  0  0
    6.1764  -34.5423   -2.0906 H   0  0  0  0  0  0
  1  2  1  0  0  0
  1  3  1  0  0  0
  3  4  1  0  0  0
  4  5  1  0  0  0
  5  6  1  0  0  0
  6  7  2  0  0  0
  7  8  1  0  0  0
  7  9  1  0  0  0
  9 10  1  0  0  0
 10 11  2  0  0  0
 11 12  1  0  0  0
 11 13  1  0  0  0
 13 14  2  0  0  0
 14 15  1  0  0  0
 15 16  2  0  0  0
 16 17  1  0  0  0
 16 18  1  0  0  0
 18 19  2  0  0  0
  9 20  2  0  0  0
 20 21  1  0  0  0
 21 22  1  0  0  0
 22 23  2  0  0  0
 23 24  1  0  0  0
 24 25  2  0  0  0
  4 26  1  0  0  0
 26 27  1  0  0  0
 27 28  1  0  0  0
 28 29  1  0  0  0
 29 30  2  0  0  0
 29 31  1  0  0  0
 31 32  1  0  0  0
 32 33  1  0  0  0
 33 34  1  0  0  0
 34 35  1  0  0  0
 28  1  1  0  0  0
 35 31  1  0  0  0
 25  6  1  0  0  0
 19 13  1  0  0  0
 25 21  1  0  0  0
 12 36  1  0  0  0
M  END
>  <CHROM.0>
2.95099929,-46.80721932,5.92716144,-123.35870883,9.19285062,65.83155176,-51.94341638

>  <CHROM.1>
104.40089465,-122.61410777,159.12137889,-178.39026003,-1.79533422,-165.08061448
10.01605548,-30.26588514,-3.18706591,-0.86520189,-0.01856750,-2.73341623

>  <Name>

>  <RI>
0

>  <Rbt.Current_Directory>
/extra/banzai2/j5wagner/CELPP/2016_10_17_rdock_implementation/normal_run/tutorialVideo/tutorial_rdock_implementation/full_week_run/4-docking/5m96/LMCSS_4wqp_docking

>  <Rbt.Executable>
rbdock ($Id: //depot/dev/client3/rdock/2013.1/src/exe/rbdock.cxx#4 $)

>  <Rbt.Library>
libRbt.so (2013.1, Build901 2013/11/27)

>  <Rbt.Parameter_File>
/home/j5wagner/env_00/source/rDock/rDock_2013.1_src//data/scripts/dock.prm

>  <Rbt.Receptor>
/extra/banzai2/j5wagner/CELPP/2016_10_17_rdock_implementation/normal_run/tutorialVideo/tutorial_rdock_implementation/full_week_run/4-docking/5m96/LMCSS_4wqp_tech_prep/rDockGridGenInput.prm

>  <SCORE>
-26.4975

>  <SCORE.INTER>
-18.1062

>  <SCORE.INTER.CONST>
1

>  <SCORE.INTER.POLAR>
0

>  <SCORE.INTER.REPUL>
0.137418

>  <SCORE.INTER.ROT>
5

>  <SCORE.INTER.VDW>
-29.1933

>  <SCORE.INTER.norm>
-0.51732

>  <SCORE.INTRA>
-1.65271

>  <SCORE.INTRA.DIHEDRAL>
-5.13579

>  <SCORE.INTRA.DIHEDRAL.0>
9.74364

>  <SCORE.INTRA.POLAR>
0

>  <SCORE.INTRA.POLAR.0>
0

>  <SCORE.INTRA.REPUL>
-0.039316

>  <SCORE.INTRA.REPUL.0>
0.108387

>  <SCORE.INTRA.VDW>
1.11176

>  <SCORE.INTRA.VDW.0>
-2.87247

>  <SCORE.INTRA.norm>
-0.0472204

>  <SCORE.RESTR>
0

>  <SCORE.RESTR.CAVITY>
0

>  <SCORE.RESTR.norm>
0

>  <SCORE.SYSTEM>
-6.73854

>  <SCORE.SYSTEM.CONST>
0

>  <SCORE.SYSTEM.DIHEDRAL>
4.81614

>  <SCORE.SYSTEM.POLAR>
-2.8095

>  <SCORE.SYSTEM.REPUL>
0.00116045

>  <SCORE.SYSTEM.VDW>
0.399879

>  <SCORE.SYSTEM.norm>
-0.19253

>  <SCORE.heavy>
35

>  <SCORE.norm>
-0.75707

$$$$

  rDOCK(R)          3D
libRbt.so/2013.1/901 2013/11/27
 36 40  0  0  0  0  0  0  0  0999 V2000
    9.9891  -28.5017   -3.6895 C   0  0  0  0  0  0
   10.6830  -29.8247   -4.0367 C   0  0  0  0  0  0
    8.5253  -28.7290   -3.2714 C   0  0  0  0  0  0
    8.4536  -29.3898   -1.9508 N   0  0  0  0  0  0
    7.0473  -29.6879   -1.6103 C   0  0  0  0  0  0
    6.8693  -31.1625   -1.3003 C   0  0  0  0  0  0
    6.6416  -32.1556   -2.3000 C   0  0  0  0  0  0
    6.5275  -31.7621   -3.7551 C   0  0  0  0  0  0
    6.5552  -33.5282   -1.9241 C   0  0  0  0  0  0
    6.3398  -34.5378   -2.9260 N   0  0  0  0  0  0
    7.1090  -34.7918   -3.9451 C   0  0  0  0  0  0
    8.2316  -33.9969   -4.1925 O   0  0  0  0  0  0
    6.7464  -35.8966   -4.8667 C   0  0  0  0  0  0
    6.1335  -37.0706   -4.4024 C   0  0  0  0  0  0
    5.8251  -38.0688   -5.2701 N   0  0  0  0  0  0
    6.0887  -37.9523   -6.5983 C   0  0  0  0  0  0
    5.7838  -39.0830   -7.5230 C   0  0  0  0  0  0
    6.6793  -36.8258   -7.0737 N   0  0  0  0  0  0
    7.0068  -35.8024   -6.2438 C   0  0  0  0  0  0
    6.6088  -33.8714   -0.5591 C   0  0  0  0  0  0
    6.7988  -32.8874    0.3487 N   0  0  0  0  0  0
    6.8909  -32.9625    1.6831 C   0  0  0  0  0  0
    7.0903  -31.6764    2.1499 C   0  0  0  0  0  0
    7.1209  -30.8060    1.1128 N   0  0  0  0  0  0
    6.9368  -31.5936    0.0309 C   0  0  0  0  0  0
    9.0741  -28.5287   -0.9216 C   0  0  0  0  0  0
   10.5566  -28.3279   -1.2357 C   0  0  0  0  0  0
   10.7090  -27.8143   -2.6041 N   0  0  0  0  0  0
   11.4486  -26.5985   -2.8406 C   0  0  0  0  0  0
   11.4470  -25.6906   -1.9634 O   0  0  0  0  0  0
   12.2841  -26.4114   -4.0926 C   0  0  0  0  0  0
   11.4069  -26.2440   -5.3365 C   0  0  0  0  0  0
   11.3397  -24.7455   -5.6353 C   0  0  0  0  0  0
   12.2769  -24.0456   -4.6558 C   0  0  0  0  0  0
   13.1172  -25.1358   -4.0111 C   0  0  0  0  0  0
    8.8389  -34.1437   -4.9879 H   0  0  0  0  0  0
  1  2  1  0  0  0
  1  3  1  0  0  0
  3  4  1  0  0  0
  4  5  1  0  0  0
  5  6  1  0  0  0
  6  7  2  0  0  0
  7  8  1  0  0  0
  7  9  1  0  0  0
  9 10  1  0  0  0
 10 11  2  0  0  0
 11 12  1  0  0  0
 11 13  1  0  0  0
 13 14  2  0  0  0
 14 15  1  0  0  0
 15 16  2  0  0  0
 16 17  1  0  0  0
 16 18  1  0  0  0
 18 19  2  0  0  0
  9 20  2  0  0  0
 20 21  1  0  0  0
 21 22  1  0  0  0
 22 23  2  0  0  0
 23 24  1  0  0  0
 24 25  2  0  0  0
  4 26  1  0  0  0
 26 27  1  0  0  0
 27 28  1  0  0  0
 28 29  1  0  0  0
 29 30  2  0  0  0
 29 31  1  0  0  0
 31 32  1  0  0  0
 32 33  1  0  0  0
 33 34  1  0  0  0
 34 35  1  0  0  0
 28  1  1  0  0  0
 35 31  1  0  0  0
 25  6  1  0  0  0
 19 13  1  0  0  0
 25 21  1  0  0  0
 12 36  1  0  0  0
M  END
>  <CHROM.0>
-2.23675560,57.92243891,-171.42047413,14.94556530,8.63126918,179.87914698
54.24307791

>  <CHROM.1>
124.78178450,-85.22902292,59.66153636,-178.16268292,-35.01881169,70.82597893
8.40284707,-31.25418880,-3.04392719,-0.59986071,-1.01287297,-2.11898928

>  <Name>

>  <RI>
0

>  <Rbt.Current_Directory>
/extra/banzai2/j5wagner/CELPP/2016_10_17_rdock_implementation/normal_run/tutorialVideo/tutorial_rdock_implementation/full_week_run/4-docking/5m96/LMCSS_4wqp_docking

>  <Rbt.Executable>
rbdock ($Id: //depot/dev/client3/rdock/2013.1/src/exe/rbdock.cxx#4 $)

>  <Rbt.Library>
libRbt.so (2013.1, Build901 2013/11/27)

>  <Rbt.Parameter_File>
/home/j5wagner/env_00/source/rDock/rDock_2013.1_src//data/scripts/dock.prm

>  <Rbt.Receptor>
/extra/banzai2/j5wagner/CELPP/2016_10_17_rdock_implementation/normal_run/tutorialVideo/tutorial_rdock_implementation/full_week_run/4-docking/5m96/LMCSS_4wqp_tech_prep/rDockGridGenInput.prm

>  <SCORE>
-19.6522

>  <SCORE.INTER>
-15.8536

>  <SCORE.INTER.CONST>
1

>  <SCORE.INTER.POLAR>
0

>  <SCORE.INTER.REPUL>
0

>  <SCORE.INTER.ROT>
5

>  <SCORE.INTER.VDW>
-26.2536

>  <SCORE.INTER.norm>
-0.452961

>  <SCORE.INTRA>
1.94002

>  <SCORE.INTRA.DIHEDRAL>
2.57359

>  <SCORE.INTRA.DIHEDRAL.0>
9.74364

>  <SCORE.INTRA.POLAR>
0

>  <SCORE.INTRA.POLAR.0>
0

>  <SCORE.INTRA.REPUL>
-0.108387

>  <SCORE.INTRA.REPUL.0>
0.108387

>  <SCORE.INTRA.VDW>
1.19517

>  <SCORE.INTRA.VDW.0>
-2.87247

>  <SCORE.INTRA.norm>
0.0554292

>  <SCORE.RESTR>
0

>  <SCORE.RESTR.CAVITY>
0

>  <SCORE.RESTR.norm>
0

>  <SCORE.SYSTEM>
-5.73855

>  <SCORE.SYSTEM.CONST>
0

>  <SCORE.SYSTEM.DIHEDRAL>
0.731442

>  <SCORE.SYSTEM.POLAR>
-1.71725

>  <SCORE.SYSTEM.REPUL>
0.0021481

>  <SCORE.SYSTEM.VDW>
-0.27637

>  <SCORE.SYSTEM.norm>
-0.163958

>  <SCORE.heavy>
35

>  <SCORE.norm>
-0.56149

$$$$

  rDOCK(R)          3D
libRbt.so/2013.1/901 2013/11/27
 36 40  0  0  0  0  0  0  0  0999 V2000
    6.4972  -33.7281   -4.5390 C   0  0  0  0  0  0
    5.4375  -33.0201   -3.6857 C   0  0  0  0  0  0
    7.8106  -32.9265   -4.5811 C   0  0  0  0  0  0
    8.4928  -32.9686   -3.2701 N   0  0  0  0  0  0
    9.6986  -32.1155   -3.3002 C   0  0  0  0  0  0
    9.3243  -30.6498   -3.1835 C   0  0  0  0  0  0
    9.9852  -29.6086   -3.9022 C   0  0  0  0  0  0
   11.1489  -29.9286   -4.8124 C   0  0  0  0  0  0
    9.5211  -28.2655   -3.7843 C   0  0  0  0  0  0
   10.1718  -27.2112   -4.5154 N   0  0  0  0  0  0
    9.9530  -25.9341   -4.3891 C   0  0  0  0  0  0
    8.9499  -25.4753   -3.5310 O   0  0  0  0  0  0
   10.7424  -24.9812   -5.2078 C   0  0  0  0  0  0
   11.6732  -25.4248   -6.1597 C   0  0  0  0  0  0
   12.3889  -24.5268   -6.8847 N   0  0  0  0  0  0
   12.2150  -23.1894   -6.7169 C   0  0  0  0  0  0
   13.0483  -22.2241   -7.4917 C   0  0  0  0  0  0
   11.3192  -22.7338   -5.8038 N   0  0  0  0  0  0
   10.5822  -23.5940   -5.0554 C   0  0  0  0  0  0
    8.4716  -27.9773   -2.8903 C   0  0  0  0  0  0
    7.8989  -28.9985   -2.2136 N   0  0  0  0  0  0
    6.8953  -28.9788   -1.3264 C   0  0  0  0  0  0
    6.6800  -30.2849   -0.9272 C   0  0  0  0  0  0
    7.5448  -31.1123   -1.5609 N   0  0  0  0  0  0
    8.2717  -30.2790   -2.3367 C   0  0  0  0  0  0
    8.8422  -34.3637   -2.9279 C   0  0  0  0  0  0
    7.5702  -35.2003   -2.7913 C   0  0  0  0  0  0
    6.7619  -35.0777   -4.0124 N   0  0  0  0  0  0
    6.3512  -36.2611   -4.7282 C   0  0  0  0  0  0
    7.0969  -37.2797   -4.7227 O   0  0  0  0  0  0
    5.0106  -36.3335   -5.4340 C   0  0  0  0  0  0
    5.0976  -35.7990   -6.8663 C   0  0  0  0  0  0
    5.2030  -37.0140   -7.7893 C   0  0  0  0  0  0
    5.0457  -38.2582   -6.9203 C   0  0  0  0  0  0
    4.5392  -37.7782   -5.5700 C   0  0  0  0  0  0
    8.7527  -24.4921   -3.3992 H   0  0  0  0  0  0
  1  2  1  0  0  0
  1  3  1  0  0  0
  3  4  1  0  0  0
  4  5  1  0  0  0
  5  6  1  0  0  0
  6  7  2  0  0  0
  7  8  1  0  0  0
  7  9  1  0  0  0
  9 10  1  0  0  0
 10 11  2  0  0  0
 11 12  1  0  0  0
 11 13  1  0  0  0
 13 14  2  0  0  0
 14 15  1  0  0  0
 15 16  2  0  0  0
 16 17  1  0  0  0
 16 18  1  0  0  0
 18 19  2  0  0  0
  9 20  2  0  0  0
 20 21  1  0  0  0
 21 22  1  0  0  0
 22 23  2  0  0  0
 23 24  1  0  0  0
 24 25  2  0  0  0
  4 26  1  0  0  0
 26 27  1  0  0  0
 27 28  1  0  0  0
 28 29  1  0  0  0
 29 30  2  0  0  0
 29 31  1  0  0  0
 31 32  1  0  0  0
 32 33  1  0  0  0
 33 34  1  0  0  0
 34 35  1  0  0  0
 28  1  1  0  0  0
 35 31  1  0  0  0
 25  6  1  0  0  0
 19 13  1  0  0  0
 25 21  1  0  0  0
 12 36  1  0  0  0
M  END
>  <CHROM.0>
11.04481300,-46.32938040,-173.86515491,14.64652057,8.65945736,64.64929952
-54.61496153

>  <CHROM.1>
77.20918260,-141.89475658,-171.79085919,179.53515077,3.06661334,87.78494220
8.44036057,-30.61873398,-4.41016620,-2.69833110,1.10518196,1.05147643

>  <Name>

>  <RI>
0

>  <Rbt.Current_Directory>
/extra/banzai2/j5wagner/CELPP/2016_10_17_rdock_implementation/normal_run/tutorialVideo/tutorial_rdock_implementation/full_week_run/4-docking/5m96/LMCSS_4wqp_docking

>  <Rbt.Executable>
rbdock ($Id: //depot/dev/client3/rdock/2013.1/src/exe/rbdock.cxx#4 $)

>  <Rbt.Library>
libRbt.so (2013.1, Build901 2013/11/27)

>  <Rbt.Parameter_File>
/home/j5wagner/env_00/source/rDock/rDock_2013.1_src//data/scripts/dock.prm

>  <Rbt.Receptor>
/extra/banzai2/j5wagner/CELPP/2016_10_17_rdock_implementation/normal_run/tutorialVideo/tutorial_rdock_implementation/full_week_run/4-docking/5m96/LMCSS_4wqp_tech_prep/rDockGridGenInput.prm

>  <SCORE>
-27.7332

>  <SCORE.INTER>
-19.5799

>  <SCORE.INTER.CONST>
1

>  <SCORE.INTER.POLAR>
0

>  <SCORE.INTER.REPUL>
0.00768204

>  <SCORE.INTER.ROT>
5

>  <SCORE.INTER.VDW>
-30.0183

>  <SCORE.INTER.norm>
-0.559425

>  <SCORE.INTRA>
-0.489191

>  <SCORE.INTRA.DIHEDRAL>
-6.60388

>  <SCORE.INTRA.DIHEDRAL.0>
9.74364

>  <SCORE.INTRA.POLAR>
0

>  <SCORE.INTRA.POLAR.0>
0

>  <SCORE.INTRA.REPUL>
0.265479

>  <SCORE.INTRA.REPUL.0>
0.108387

>  <SCORE.INTRA.VDW>
1.48535

>  <SCORE.INTRA.VDW.0>
-2.87247

>  <SCORE.INTRA.norm>
-0.0139769

>  <SCORE.RESTR>
0

>  <SCORE.RESTR.CAVITY>
0

>  <SCORE.RESTR.norm>
0

>  <SCORE.SYSTEM>
-7.66419

>  <SCORE.SYSTEM.CONST>
0

>  <SCORE.SYSTEM.DIHEDRAL>
1.78528

>  <SCORE.SYSTEM.POLAR>
-2.77725

>  <SCORE.SYSTEM.VDW>
0.885841

>  <SCORE.SYSTEM.norm>
-0.218977

>  <SCORE.heavy>
35

>  <SCORE.norm>
-0.792378

$$$$

  rDOCK(R)          3D
libRbt.so/2013.1/901 2013/11/27
 36 40  0  0  0  0  0  0  0  0999 V2000
    7.3851  -32.0876   -4.4513 C   0  0  0  0  0  0
    6.3440  -31.0885   -3.9312 C   0  0  0  0  0  0
    8.5069  -31.3753   -5.2281 C   0  0  0  0  0  0
    9.3639  -30.5929   -4.3120 N   0  0  0  0  0  0
   10.3734  -29.8394   -5.0839 C   0  0  0  0  0  0
   10.7896  -28.5824   -4.3432 C   0  0  0  0  0  0
   12.0443  -28.4394   -3.6778 C   0  0  0  0  0  0
   13.0293  -29.5856   -3.6507 C   0  0  0  0  0  0
   12.3804  -27.1963   -3.0655 C   0  0  0  0  0  0
   13.6483  -27.0379   -2.4045 N   0  0  0  0  0  0
   13.8731  -27.1493   -1.1271 C   0  0  0  0  0  0
   12.8124  -27.3705   -0.2444 O   0  0  0  0  0  0
   15.2574  -26.9827   -0.6197 C   0  0  0  0  0  0
   16.3682  -27.0612   -1.4735 C   0  0  0  0  0  0
   17.6234  -26.9162   -0.9758 N   0  0  0  0  0  0
   17.8328  -26.6820    0.3465 C   0  0  0  0  0  0
   19.2238  -26.5744    0.8757 C   0  0  0  0  0  0
   16.7750  -26.5995    1.1939 N   0  0  0  0  0  0
   15.5023  -26.7391    0.7419 C   0  0  0  0  0  0
   11.4294  -26.1575   -3.0525 C   0  0  0  0  0  0
   10.2453  -26.3561   -3.6746 N   0  0  0  0  0  0
    9.1989  -25.5297   -3.8034 C   0  0  0  0  0  0
    8.2357  -26.2036   -4.5313 C   0  0  0  0  0  0
    8.6792  -27.4422   -4.8526 N   0  0  0  0  0  0
    9.9133  -27.4901   -4.3054 C   0  0  0  0  0  0
   10.0118  -31.4936   -3.3349 C   0  0  0  0  0  0
    8.9501  -32.1760   -2.4724 C   0  0  0  0  0  0
    7.9682  -32.8492   -3.3339 N   0  0  0  0  0  0
    7.6876  -34.2522   -3.1490 C   0  0  0  0  0  0
    8.6029  -35.0195   -2.7401 O   0  0  0  0  0  0
    6.2975  -34.8170   -3.3713 C   0  0  0  0  0  0
    5.8008  -34.5493   -4.7948 C   0  0  0  0  0  0
    6.0208  -35.8357   -5.5923 C   0  0  0  0  0  0
    6.5197  -36.8954   -4.6146 C   0  0  0  0  0  0
    6.2913  -36.3353   -3.2202 C   0  0  0  0  0  0
   12.9471  -27.4889    0.7510 H   0  0  0  0  0  0
  1  2  1  0  0  0
  1  3  1  0  0  0
  3  4  1  0  0  0
  4  5  1  0  0  0
  5  6  1  0  0  0
  6  7  2  0  0  0
  7  8  1  0  0  0
  7  9  1  0  0  0
  9 10  1  0  0  0
 10 11  2  0  0  0
 11 12  1  0  0  0
 11 13  1  0  0  0
 13 14  2  0  0  0
 14 15  1  0  0  0
 15 16  2  0  0  0
 16 17  1  0  0  0
 16 18  1  0  0  0
 18 19  2  0  0  0
  9 20  2  0  0  0
 20 21  1  0  0  0
 21 22  1  0  0  0
 22 23  2  0  0  0
 23 24  1  0  0  0
 24 25  2  0  0  0
  4 26  1  0  0  0
 26 27  1  0  0  0
 27 28  1  0  0  0
 28 29  1  0  0  0
 29 30  2  0  0  0
 29 31  1  0  0  0
 31 32  1  0  0  0
 32 33  1  0  0  0
 33 34  1  0  0  0
 34 35  1  0  0  0
 28  1  1  0  0  0
 35 31  1  0  0  0
 25  6  1  0  0  0
 19 13  1  0  0  0
 25 21  1  0  0  0
 12 36  1  0  0  0
M  END
>  <CHROM.0>
64.27694005,58.09998236,-169.52058132,-118.77586285,9.75357554,64.11119004
-54.28295859

>  <CHROM.1>
152.39866632,105.80121188,-97.42493057,178.22512491,-17.10668884,58.17533756
10.85041246,-29.82298965,-2.91383806,2.57293505,0.52203361,2.91765689

>  <Name>

>  <RI>
0

>  <Rbt.Current_Directory>
/extra/banzai2/j5wagner/CELPP/2016_10_17_rdock_implementation/normal_run/tutorialVideo/tutorial_rdock_implementation/full_week_run/4-docking/5m96/LMCSS_4wqp_docking

>  <Rbt.Executable>
rbdock ($Id: //depot/dev/client3/rdock/2013.1/src/exe/rbdock.cxx#4 $)

>  <Rbt.Library>
libRbt.so (2013.1, Build901 2013/11/27)

>  <Rbt.Parameter_File>
/home/j5wagner/env_00/source/rDock/rDock_2013.1_src//data/scripts/dock.prm

>  <Rbt.Receptor>
/extra/banzai2/j5wagner/CELPP/2016_10_17_rdock_implementation/normal_run/tutorialVideo/tutorial_rdock_implementation/full_week_run/4-docking/5m96/LMCSS_4wqp_tech_prep/rDockGridGenInput.prm

>  <SCORE>
-23.4428

>  <SCORE.INTER>
-14.8359

>  <SCORE.INTER.CONST>
1

>  <SCORE.INTER.POLAR>
-0.603496

>  <SCORE.INTER.REPUL>
0.00844548

>  <SCORE.INTER.ROT>
5

>  <SCORE.INTER.VDW>
-23.2262

>  <SCORE.INTER.norm>
-0.423882

>  <SCORE.INTRA>
0.392403

>  <SCORE.INTRA.DIHEDRAL>
-0.142753

>  <SCORE.INTRA.DIHEDRAL.0>
9.74364

>  <SCORE.INTRA.POLAR>
0

>  <SCORE.INTRA.POLAR.0>
0

>  <SCORE.INTRA.REPUL>
-0.107327

>  <SCORE.INTRA.REPUL.0>
0.108387

>  <SCORE.INTRA.VDW>
1.00041

>  <SCORE.INTRA.VDW.0>
-2.87247

>  <SCORE.INTRA.norm>
0.0112115

>  <SCORE.RESTR>
0

>  <SCORE.RESTR.CAVITY>
0

>  <SCORE.RESTR.norm>
0

>  <SCORE.SYSTEM>
-8.99934

>  <SCORE.SYSTEM.CONST>
0

>  <SCORE.SYSTEM.DIHEDRAL>
8.13071

>  <SCORE.SYSTEM.POLAR>
-3.47388

>  <SCORE.SYSTEM.VDW>
-1.25352

>  <SCORE.SYSTEM.norm>
-0.257124

>  <SCORE.heavy>
35

>  <SCORE.norm>
-0.669795

$$$$

  rDOCK(R)          3D
libRbt.so/2013.1/901 2013/11/27
 36 40  0  0  0  0  0  0  0  0999 V2000
    9.6809  -28.6729   -3.5913 C   0  0  0  0  0  0
   10.5837  -29.9106   -3.5167 C   0  0  0  0  0  0
    8.2166  -29.0270   -3.2756 C   0  0  0  0  0  0
    8.0536  -29.3551   -1.8432 N   0  0  0  0  0  0
    6.6656  -29.7862   -1.5782 C   0  0  0  0  0  0
    6.6118  -31.2722   -1.2763 C   0  0  0  0  0  0
    6.4181  -32.2724   -2.2761 C   0  0  0  0  0  0
    6.2148  -31.8783   -3.7212 C   0  0  0  0  0  0
    6.4506  -33.6504   -1.9110 C   0  0  0  0  0  0
    6.2702  -34.6661   -2.9137 N   0  0  0  0  0  0
    7.0085  -34.8487   -3.9703 C   0  0  0  0  0  0
    8.0503  -33.9634   -4.2602 O   0  0  0  0  0  0
    6.6931  -35.9720   -4.8869 C   0  0  0  0  0  0
    6.1325  -37.1695   -4.4172 C   0  0  0  0  0  0
    5.8668  -38.1837   -5.2805 N   0  0  0  0  0  0
    6.1234  -38.0612   -6.6095 C   0  0  0  0  0  0
    5.8668  -39.2078   -7.5292 C   0  0  0  0  0  0
    6.6639  -36.9120   -7.0902 N   0  0  0  0  0  0
    6.9475  -35.8720   -6.2648 C   0  0  0  0  0  0
    6.5861  -33.9983   -0.5530 C   0  0  0  0  0  0
    6.7391  -33.0093    0.3564 N   0  0  0  0  0  0
    6.8915  -33.0868    1.6851 C   0  0  0  0  0  0
    7.0130  -31.7927    2.1566 C   0  0  0  0  0  0
    6.9354  -30.9150    1.1281 N   0  0  0  0  0  0
    6.7663  -31.7066    0.0465 C   0  0  0  0  0  0
    8.4095  -28.1841   -1.0138 C   0  0  0  0  0  0
    9.8815  -27.8277   -1.2210 C   0  0  0  0  0  0
   10.1497  -27.6388   -2.6534 N   0  0  0  0  0  0
   10.7479  -26.4119   -3.1203 C   0  0  0  0  0  0
   10.5076  -25.3330   -2.5104 O   0  0  0  0  0  0
   11.7141  -26.3974   -4.2895 C   0  0  0  0  0  0
   11.7944  -25.0126   -4.9380 C   0  0  0  0  0  0
   13.0575  -24.3405   -4.3975 C   0  0  0  0  0  0
   13.7872  -25.3701   -3.5401 C   0  0  0  0  0  0
   13.1351  -26.7118   -3.8313 C   0  0  0  0  0  0
    8.6638  -34.0849   -5.0551 H   0  0  0  0  0  0
  1  2  1  0  0  0
  1  3  1  0  0  0
  3  4  1  0  0  0
  4  5  1  0  0  0
  5  6  1  0  0  0
  6  7  2  0  0  0
  7  8  1  0  0  0
  7  9  1  0  0  0
  9 10  1  0  0  0
 10 11  2  0  0  0
 11 12  1  0  0  0
 11 13  1  0  0  0
 13 14  2  0  0  0
 14 15  1  0  0  0
 15 16  2  0  0  0
 16 17  1  0  0  0
 16 18  1  0  0  0
 18 19  2  0  0  0
  9 20  2  0  0  0
 20 21  1  0  0  0
 21 22  1  0  0  0
 22 23  2  0  0  0
 23 24  1  0  0  0
 24 25  2  0  0  0
  4 26  1  0  0  0
 26 27  1  0  0  0
 27 28  1  0  0  0
 28 29  1  0  0  0
 29 30  2  0  0  0
 29 31  1  0  0  0
 31 32  1  0  0  0
 32 33  1  0  0  0
 33 34  1  0  0  0
 34 35  1  0  0  0
 28  1  1  0  0  0
 35 31  1  0  0  0
 25  6  1  0  0  0
 19 13  1  0  0  0
 25 21  1  0  0  0
 12 36  1  0  0  0
M  END
>  <CHROM.0>
18.69255339,62.61005467,3.02833163,-119.14740149,-176.21746821,65.16907556
-53.95069004

>  <CHROM.1>
109.45575120,-90.77720855,59.18670591,178.14764490,-31.54515008,158.06722015
8.29670263,-31.31761925,-2.97029126,-0.70377837,-0.95550199,-2.22430542

>  <Name>

>  <RI>
0

>  <Rbt.Current_Directory>
/extra/banzai2/j5wagner/CELPP/2016_10_17_rdock_implementation/normal_run/tutorialVideo/tutorial_rdock_implementation/full_week_run/4-docking/5m96/LMCSS_4wqp_docking

>  <Rbt.Executable>
rbdock ($Id: //depot/dev/client3/rdock/2013.1/src/exe/rbdock.cxx#4 $)

>  <Rbt.Library>
libRbt.so (2013.1, Build901 2013/11/27)

>  <Rbt.Parameter_File>
/home/j5wagner/env_00/source/rDock/rDock_2013.1_src//data/scripts/dock.prm

>  <Rbt.Receptor>
/extra/banzai2/j5wagner/CELPP/2016_10_17_rdock_implementation/normal_run/tutorialVideo/tutorial_rdock_implementation/full_week_run/4-docking/5m96/LMCSS_4wqp_tech_prep/rDockGridGenInput.prm

>  <SCORE>
-18.422

>  <SCORE.INTER>
-12.8754

>  <SCORE.INTER.CONST>
1

>  <SCORE.INTER.POLAR>
0

>  <SCORE.INTER.REPUL>
0

>  <SCORE.INTER.ROT>
5

>  <SCORE.INTER.VDW>
-23.2754

>  <SCORE.INTER.norm>
-0.36787

>  <SCORE.INTRA>
1.67258

>  <SCORE.INTRA.DIHEDRAL>
2.9175

>  <SCORE.INTRA.DIHEDRAL.0>
9.74364

>  <SCORE.INTRA.POLAR>
0

>  <SCORE.INTRA.POLAR.0>
0

>  <SCORE.INTRA.REPUL>
-0.108387

>  <SCORE.INTRA.REPUL.0>
0.108387

>  <SCORE.INTRA.VDW>
0.75577

>  <SCORE.INTRA.VDW.0>
-2.87247

>  <SCORE.INTRA.norm>
0.0477881

>  <SCORE.RESTR>
0

>  <SCORE.RESTR.CAVITY>
0

>  <SCORE.RESTR.norm>
0

>  <SCORE.SYSTEM>
-7.21912

>  <SCORE.SYSTEM.CONST>
0

>  <SCORE.SYSTEM.DIHEDRAL>
4.51441

>  <SCORE.SYSTEM.POLAR>
-2.64762

>  <SCORE.SYSTEM.VDW>
-0.474399

>  <SCORE.SYSTEM.norm>
-0.206261

>  <SCORE.heavy>
35

>  <SCORE.norm>
-0.526342

$$$$

  rDOCK(R)          3D
libRbt.so/2013.1/901 2013/11/27
 36 40  0  0  0  0  0  0  0  0999 V2000
   13.3075  -28.5719   -2.6180 C   0  0  0  0  0  0
   12.9460  -29.4252   -1.3959 C   0  0  0  0  0  0
   12.2761  -28.7445   -3.7474 C   0  0  0  0  0  0
   10.9907  -28.1101   -3.3853 N   0  0  0  0  0  0
    9.9852  -28.3693   -4.4362 C   0  0  0  0  0  0
    8.9096  -29.3128   -3.9312 C   0  0  0  0  0  0
    8.6178  -30.5714   -4.5380 C   0  0  0  0  0  0
    9.3680  -31.0161   -5.7727 C   0  0  0  0  0  0
    7.6365  -31.4254   -3.9542 C   0  0  0  0  0  0
    7.3453  -32.7018   -4.5505 N   0  0  0  0  0  0
    6.3242  -33.4642   -4.2843 C   0  0  0  0  0  0
    5.4225  -33.1041   -3.2790 O   0  0  0  0  0  0
    6.1645  -34.7419   -5.0215 C   0  0  0  0  0  0
    5.1154  -35.6292   -4.7368 C   0  0  0  0  0  0
    5.0040  -36.7968   -5.4215 N   0  0  0  0  0  0
    5.8899  -37.1265   -6.3980 C   0  0  0  0  0  0
    5.7731  -38.4370   -7.1020 C   0  0  0  0  0  0
    6.9131  -36.2845   -6.6944 N   0  0  0  0  0  0
    7.0652  -35.1071   -6.0357 C   0  0  0  0  0  0
    6.9087  -30.9724   -2.8367 C   0  0  0  0  0  0
    7.2072  -29.7597   -2.3182 N   0  0  0  0  0  0
    6.6685  -29.1229   -1.2699 C   0  0  0  0  0  0
    7.3273  -27.9136   -1.1464 C   0  0  0  0  0  0
    8.2693  -27.7976   -2.1125 N   0  0  0  0  0  0
    8.1573  -28.9514   -2.8061 C   0  0  0  0  0  0
   11.1833  -26.6578   -3.1865 C   0  0  0  0  0  0
   12.1406  -26.4146   -2.0199 C   0  0  0  0  0  0
   13.3930  -27.1501   -2.2437 N   0  0  0  0  0  0
   14.6553  -26.4526   -2.2123 C   0  0  0  0  0  0
   14.7087  -25.2488   -2.5889 O   0  0  0  0  0  0
   15.9106  -27.1121   -1.6738 C   0  0  0  0  0  0
   17.0122  -26.0855   -1.3952 C   0  0  0  0  0  0
   16.9904  -25.8063    0.1084 C   0  0  0  0  0  0
   15.9741  -26.7584    0.7315 C   0  0  0  0  0  0
   15.6426  -27.7906   -0.3338 C   0  0  0  0  0  0
    4.6439  -33.6906   -3.0092 H   0  0  0  0  0  0
  1  2  1  0  0  0
  1  3  1  0  0  0
  3  4  1  0  0  0
  4  5  1  0  0  0
  5  6  1  0  0  0
  6  7  2  0  0  0
  7  8  1  0  0  0
  7  9  1  0  0  0
  9 10  1  0  0  0
 10 11  2  0  0  0
 11 12  1  0  0  0
 11 13  1  0  0  0
 13 14  2  0  0  0
 14 15  1  0  0  0
 15 16  2  0  0  0
 16 17  1  0  0  0
 16 18  1  0  0  0
 18 19  2  0  0  0
  9 20  2  0  0  0
 20 21  1  0  0  0
 21 22  1  0  0  0
 22 23  2  0  0  0
 23 24  1  0  0  0
 24 25  2  0  0  0
  4 26  1  0  0  0
 26 27  1  0  0  0
 27 28  1  0  0  0
 28 29  1  0  0  0
 29 30  2  0  0  0
 29 31  1  0  0  0
 31 32  1  0  0  0
 32 33  1  0  0  0
 33 34  1  0  0  0
 34 35  1  0  0  0
 28  1  1  0  0  0
 35 31  1  0  0  0
 25  6  1  0  0  0
 19 13  1  0  0  0
 25 21  1  0  0  0
 12 36  1  0  0  0
M  END
>  <CHROM.0>
18.87535611,-46.77317874,-166.17909087,19.56523864,8.78103647,66.38167690
-52.37136457

>  <CHROM.1>
110.63722852,-120.90507088,-166.37768006,-176.80790104,177.27222066,-164.80043451
9.97727452,-30.22250124,-3.25641401,-0.82065469,-0.03445975,-2.67865287

>  <Name>

>  <RI>
0

>  <Rbt.Current_Directory>
/extra/banzai2/j5wagner/CELPP/2016_10_17_rdock_implementation/normal_run/tutorialVideo/tutorial_rdock_implementation/full_week_run/4-docking/5m96/LMCSS_4wqp_docking

>  <Rbt.Executable>
rbdock ($Id: //depot/dev/client3/rdock/2013.1/src/exe/rbdock.cxx#4 $)

>  <Rbt.Library>
libRbt.so (2013.1, Build901 2013/11/27)

>  <Rbt.Parameter_File>
/home/j5wagner/env_00/source/rDock/rDock_2013.1_src//data/scripts/dock.prm

>  <Rbt.Receptor>
/extra/banzai2/j5wagner/CELPP/2016_10_17_rdock_implementation/normal_run/tutorialVideo/tutorial_rdock_implementation/full_week_run/4-docking/5m96/LMCSS_4wqp_tech_prep/rDockGridGenInput.prm

>  <SCORE>
-27.7622

>  <SCORE.INTER>
-18.7029

>  <SCORE.INTER.CONST>
1

>  <SCORE.INTER.POLAR>
0

>  <SCORE.INTER.REPUL>
0.100878

>  <SCORE.INTER.ROT>
5

>  <SCORE.INTER.VDW>
-29.6073

>  <SCORE.INTER.norm>
-0.534368

>  <SCORE.INTRA>
-1.52626

>  <SCORE.INTRA.DIHEDRAL>
-5.54563

>  <SCORE.INTRA.DIHEDRAL.0>
9.74364

>  <SCORE.INTRA.POLAR>
0

>  <SCORE.INTRA.POLAR.0>
0

>  <SCORE.INTRA.REPUL>
-0.0721275

>  <SCORE.INTRA.REPUL.0>
0.108387

>  <SCORE.INTRA.VDW>
1.60719

>  <SCORE.INTRA.VDW.0>
-2.87247

>  <SCORE.INTRA.norm>
-0.0436074

>  <SCORE.RESTR>
0

>  <SCORE.RESTR.CAVITY>
0

>  <SCORE.RESTR.norm>
0

>  <SCORE.SYSTEM>
-7.53306

>  <SCORE.SYSTEM.CONST>
0

>  <SCORE.SYSTEM.DIHEDRAL>
2.73892

>  <SCORE.SYSTEM.POLAR>
-2.80784

>  <SCORE.SYSTEM.REPUL>
0.000660459

>  <SCORE.SYSTEM.VDW>
0.640832

>  <SCORE.SYSTEM.norm>
-0.21523

>  <SCORE.heavy>
35

>  <SCORE.norm>
-0.793206

$$$$

  rDOCK(R)          3D
libRbt.so/2013.1/901 2013/11/27
 36 40  0  0  0  0  0  0  0  0999 V2000
    9.9809  -27.3992   -2.6610 C   0  0  0  0  0  0
    9.7261  -27.1205   -4.1476 C   0  0  0  0  0  0
    8.6930  -27.8434   -1.9449 C   0  0  0  0  0  0
    8.2940  -29.1999   -2.3769 N   0  0  0  0  0  0
    7.0061  -29.5702   -1.7548 C   0  0  0  0  0  0
    6.9112  -31.0728   -1.5670 C   0  0  0  0  0  0
    6.8304  -31.9983   -2.6507 C   0  0  0  0  0  0
    6.7979  -31.5019   -4.0781 C   0  0  0  0  0  0
    6.8144  -33.3987   -2.3827 C   0  0  0  0  0  0
    6.7472  -34.3397   -3.4688 N   0  0  0  0  0  0
    6.4895  -35.6122   -3.3739 C   0  0  0  0  0  0
    6.3245  -36.2033   -2.1183 O   0  0  0  0  0  0
    6.4299  -36.4316   -4.6094 C   0  0  0  0  0  0
    6.5870  -35.8583   -5.8805 C   0  0  0  0  0  0
    6.5150  -36.6340   -6.9930 N   0  0  0  0  0  0
    6.3030  -37.9734   -6.9036 C   0  0  0  0  0  0
    6.1803  -38.7953   -8.1430 C   0  0  0  0  0  0
    6.1498  -38.5535   -5.6855 N   0  0  0  0  0  0
    6.2128  -37.8180   -4.5460 C   0  0  0  0  0  0
    6.7900  -33.8422   -1.0461 C   0  0  0  0  0  0
    6.8407  -32.9210   -0.0575 N   0  0  0  0  0  0
    6.8376  -33.0929    1.2711 C   0  0  0  0  0  0
    6.9091  -31.8365    1.8437 C   0  0  0  0  0  0
    6.9552  -30.8883    0.8779 N   0  0  0  0  0  0
    6.9093  -31.6003   -0.2693 C   0  0  0  0  0  0
    9.3495  -30.1728   -2.0230 C   0  0  0  0  0  0
   10.6407  -29.8336   -2.7676 C   0  0  0  0  0  0
   11.0138  -28.4370   -2.5035 N   0  0  0  0  0  0
   12.3247  -28.1251   -1.9881 C   0  0  0  0  0  0
   12.9052  -28.9497   -1.2286 O   0  0  0  0  0  0
   13.0520  -26.8566   -2.3911 C   0  0  0  0  0  0
   13.3395  -25.9626   -1.1816 C   0  0  0  0  0  0
   14.7978  -26.2021   -0.7876 C   0  0  0  0  0  0
   15.4042  -27.1293   -1.8366 C   0  0  0  0  0  0
   14.4179  -27.1743   -2.9922 C   0  0  0  0  0  0
    6.1097  -37.1847   -2.0016 H   0  0  0  0  0  0
  1  2  1  0  0  0
  1  3  1  0  0  0
  3  4  1  0  0  0
  4  5  1  0  0  0
  5  6  1  0  0  0
  6  7  2  0  0  0
  7  8  1  0  0  0
  7  9  1  0  0  0
  9 10  1  0  0  0
 10 11  2  0  0  0
 11 12  1  0  0  0
 11 13  1  0  0  0
 13 14  2  0  0  0
 14 15  1  0  0  0
 15 16  2  0  0  0
 16 17  1  0  0  0
 16 18  1  0  0  0
 18 19  2  0  0  0
  9 20  2  0  0  0
 20 21  1  0  0  0
 21 22  1  0  0  0
 22 23  2  0  0  0
 23 24  1  0  0  0
 24 25  2  0  0  0
  4 26  1  0  0  0
 26 27  1  0  0  0
 27 28  1  0  0  0
 28 29  1  0  0  0
 29 30  2  0  0  0
 29 31  1  0  0  0
 31 32  1  0  0  0
 32 33  1  0  0  0
 33 34  1  0  0  0
 34 35  1  0  0  0
 28  1  1  0  0  0
 35 31  1  0  0  0
 25  6  1  0  0  0
 19 13  1  0  0  0
 25 21  1  0  0  0
 12 36  1  0  0  0
M  END
>  <CHROM.0>
-6.18234894,59.02328082,16.08685393,15.79698887,9.18603925,-177.59001533
174.54770033

>  <CHROM.1>
-150.94505248,-67.08522920,-166.96680671,179.05403068,-2.80981174,119.18515281
8.71965367,-31.68480861,-2.64706817,-0.78616739,-0.71044270,-2.24980841

>  <Name>

>  <RI>
0

>  <Rbt.Current_Directory>
/extra/banzai2/j5wagner/CELPP/2016_10_17_rdock_implementation/normal_run/tutorialVideo/tutorial_rdock_implementation/full_week_run/4-docking/5m96/LMCSS_4wqp_docking

>  <Rbt.Executable>
rbdock ($Id: //depot/dev/client3/rdock/2013.1/src/exe/rbdock.cxx#4 $)

>  <Rbt.Library>
libRbt.so (2013.1, Build901 2013/11/27)

>  <Rbt.Parameter_File>
/home/j5wagner/env_00/source/rDock/rDock_2013.1_src//data/scripts/dock.prm

>  <Rbt.Receptor>
/extra/banzai2/j5wagner/CELPP/2016_10_17_rdock_implementation/normal_run/tutorialVideo/tutorial_rdock_implementation/full_week_run/4-docking/5m96/LMCSS_4wqp_tech_prep/rDockGridGenInput.prm

>  <SCORE>
-16.4834

>  <SCORE.INTER>
-13.1638

>  <SCORE.INTER.CONST>
1

>  <SCORE.INTER.POLAR>
0

>  <SCORE.INTER.REPUL>
0.000637193

>  <SCORE.INTER.ROT>
5

>  <SCORE.INTER.VDW>
-23.567

>  <SCORE.INTER.norm>
-0.376108

>  <SCORE.INTRA>
1.82443

>  <SCORE.INTRA.DIHEDRAL>
-3.71608

>  <SCORE.INTRA.DIHEDRAL.0>
9.74364

>  <SCORE.INTRA.POLAR>
0

>  <SCORE.INTRA.POLAR.0>
0

>  <SCORE.INTRA.REPUL>
-0.108387

>  <SCORE.INTRA.REPUL.0>
0.108387

>  <SCORE.INTRA.VDW>
4.22441

>  <SCORE.INTRA.VDW.0>
-2.87247

>  <SCORE.INTRA.norm>
0.0521266

>  <SCORE.RESTR>
0

>  <SCORE.RESTR.CAVITY>
0

>  <SCORE.RESTR.norm>
0

>  <SCORE.SYSTEM>
-5.14409

>  <SCORE.SYSTEM.CONST>
0

>  <SCORE.SYSTEM.DIHEDRAL>
1.08667

>  <SCORE.SYSTEM.POLAR>
-1.70241

>  <SCORE.SYSTEM.VDW>
0.100786

>  <SCORE.SYSTEM.norm>
-0.146974

>  <SCORE.heavy>
35

>  <SCORE.norm>
-0.470955

$$$$

  rDOCK(R)          3D
libRbt.so/2013.1/901 2013/11/27
 36 40  0  0  0  0  0  0  0  0999 V2000
   10.4361  -30.4250   -3.0539 C   0  0  0  0  0  0
   10.1236  -29.6825   -4.3591 C   0  0  0  0  0  0
   11.3221  -29.5764   -2.1243 C   0  0  0  0  0  0
   10.5612  -28.4349   -1.5730 N   0  0  0  0  0  0
   11.4513  -27.5782   -0.7628 C   0  0  0  0  0  0
   12.3620  -26.7537   -1.6533 C   0  0  0  0  0  0
   11.9368  -26.1589   -2.8793 C   0  0  0  0  0  0
   10.5242  -26.3627   -3.3773 C   0  0  0  0  0  0
   12.8419  -25.3416   -3.6180 C   0  0  0  0  0  0
   12.4184  -24.7264   -4.8475 N   0  0  0  0  0  0
   12.4714  -25.2567   -6.0353 C   0  0  0  0  0  0
   13.0525  -26.5147   -6.2170 O   0  0  0  0  0  0
   11.9594  -24.4852   -7.1946 C   0  0  0  0  0  0
   11.8548  -25.0584   -8.4712 C   0  0  0  0  0  0
   11.3935  -24.3217   -9.5147 N   0  0  0  0  0  0
   11.0142  -23.0273   -9.3481 C   0  0  0  0  0  0
   10.5563  -22.2257  -10.5205 C   0  0  0  0  0  0
   11.1036  -22.4493   -8.1227 N   0  0  0  0  0  0
   11.5599  -23.1462   -7.0506 C   0  0  0  0  0  0
   14.1699  -25.2071   -3.1682 C   0  0  0  0  0  0
   14.5270  -25.8146   -2.0141 N   0  0  0  0  0  0
   15.7106  -25.8280   -1.3867 C   0  0  0  0  0  0
   15.5551  -26.5872   -0.2417 C   0  0  0  0  0  0
   14.2832  -27.0446   -0.1574 N   0  0  0  0  0  0
   13.6921  -26.5469   -1.2654 C   0  0  0  0  0  0
    9.4258  -28.9286   -0.7651 C   0  0  0  0  0  0
    8.4607  -29.7167   -1.6507 C   0  0  0  0  0  0
    9.1896  -30.7807   -2.3550 N   0  0  0  0  0  0
    8.7468  -32.1498   -2.2514 C   0  0  0  0  0  0
    8.1918  -32.5437   -1.1881 O   0  0  0  0  0  0
    8.8724  -33.1124   -3.4169 C   0  0  0  0  0  0
    8.3700  -34.5115   -3.0496 C   0  0  0  0  0  0
    6.9531  -34.6374   -3.6116 C   0  0  0  0  0  0
    6.6715  -33.3733   -4.4181 C   0  0  0  0  0  0
    8.0065  -32.6678   -4.5919 C   0  0  0  0  0  0
   13.0891  -26.9733   -7.1178 H   0  0  0  0  0  0
  1  2  1  0  0  0
  1  3  1  0  0  0
  3  4  1  0  0  0
  4  5  1  0  0  0
  5  6  1  0  0  0
  6  7  2  0  0  0
  7  8  1  0  0  0
  7  9  1  0  0  0
  9 10  1  0  0  0
 10 11  2  0  0  0
 11 12  1  0  0  0
 11 13  1  0  0  0
 13 14  2  0  0  0
 14 15  1  0  0  0
 15 16  2  0  0  0
 16 17  1  0  0  0
 16 18  1  0  0  0
 18 19  2  0  0  0
  9 20  2  0  0  0
 20 21  1  0  0  0
 21 22  1  0  0  0
 22 23  2  0  0  0
 23 24  1  0  0  0
 24 25  2  0  0  0
  4 26  1  0  0  0
 26 27  1  0  0  0
 27 28  1  0  0  0
 28 29  1  0  0  0
 29 30  2  0  0  0
 29 31  1  0  0  0
 31 32  1  0  0  0
 32 33  1  0  0  0
 33 34  1  0  0  0
 34 35  1  0  0  0
 28  1  1  0  0  0
 35 31  1  0  0  0
 25  6  1  0  0  0
 19 13  1  0  0  0
 25 21  1  0  0  0
 12 36  1  0  0  0
M  END
>  <CHROM.0>
-3.40509017,63.89404126,-153.09092806,74.89704752,9.96283801,65.45852750
178.13874248

>  <CHROM.1>
74.85242257,39.15757002,-87.33262070,178.13931022,-172.88949911,178.44708436
11.08444260,-27.80732873,-3.89997804,2.14239345,0.81800535,2.23550712

>  <Name>

>  <RI>
0

>  <Rbt.Current_Directory>
/extra/banzai2/j5wagner/CELPP/2016_10_17_rdock_implementation/normal_run/tutorialVideo/tutorial_rdock_implementation/full_week_run/4-docking/5m96/LMCSS_4wqp_docking

>  <Rbt.Executable>
rbdock ($Id: //depot/dev/client3/rdock/2013.1/src/exe/rbdock.cxx#4 $)

>  <Rbt.Library>
libRbt.so (2013.1, Build901 2013/11/27)

>  <Rbt.Parameter_File>
/home/j5wagner/env_00/source/rDock/rDock_2013.1_src//data/scripts/dock.prm

>  <Rbt.Receptor>
/extra/banzai2/j5wagner/CELPP/2016_10_17_rdock_implementation/normal_run/tutorialVideo/tutorial_rdock_implementation/full_week_run/4-docking/5m96/LMCSS_4wqp_tech_prep/rDockGridGenInput.prm

>  <SCORE>
-20.9388

>  <SCORE.INTER>
-15.8747

>  <SCORE.INTER.CONST>
1

>  <SCORE.INTER.POLAR>
-0.723914

>  <SCORE.INTER.REPUL>
0

>  <SCORE.INTER.ROT>
5

>  <SCORE.INTER.VDW>
-23.8134

>  <SCORE.INTER.norm>
-0.453563

>  <SCORE.INTRA>
0.428654

>  <SCORE.INTRA.DIHEDRAL>
-1.25861

>  <SCORE.INTRA.DIHEDRAL.0>
9.74364

>  <SCORE.INTRA.POLAR>
0

>  <SCORE.INTRA.POLAR.0>
0

>  <SCORE.INTRA.REPUL>
-0.108387

>  <SCORE.INTRA.REPUL.0>
0.108387

>  <SCORE.INTRA.VDW>
1.5999

>  <SCORE.INTRA.VDW.0>
-2.87247

>  <SCORE.INTRA.norm>
0.0122472

>  <SCORE.RESTR>
0.225274

>  <SCORE.RESTR.CAVITY>
0.225274

>  <SCORE.RESTR.norm>
0.00643639

>  <SCORE.SYSTEM>
-5.71804

>  <SCORE.SYSTEM.CONST>
0

>  <SCORE.SYSTEM.DIHEDRAL>
5.86255

>  <SCORE.SYSTEM.POLAR>
-2.31132

>  <SCORE.SYSTEM.VDW>
-0.790829

>  <SCORE.SYSTEM.norm>
-0.163373

>  <SCORE.heavy>
35

>  <SCORE.norm>
-0.598252

$$$$

  rDOCK(R)          3D
libRbt.so/2013.1/901 2013/11/27
 36 40  0  0  0  0  0  0  0  0999 V2000
    8.3543  -29.4925   -1.7118 C   0  0  0  0  0  0
    9.7472  -29.5570   -1.0730 C   0  0  0  0  0  0
    8.0204  -28.0670   -2.1867 C   0  0  0  0  0  0
    8.8391  -27.7006   -3.3620 N   0  0  0  0  0  0
    8.5766  -26.2977   -3.7434 C   0  0  0  0  0  0
    9.8769  -25.5441   -3.9521 C   0  0  0  0  0  0
   11.0561  -25.7803   -3.1832 C   0  0  0  0  0  0
   11.0483  -26.7993   -2.0667 C   0  0  0  0  0  0
   12.2547  -25.0736   -3.4947 C   0  0  0  0  0  0
   13.4519  -25.3149   -2.7345 N   0  0  0  0  0  0
   14.1361  -26.4220   -2.7009 C   0  0  0  0  0  0
   13.6801  -27.5500   -3.3884 O   0  0  0  0  0  0
   15.3707  -26.4839   -1.8804 C   0  0  0  0  0  0
   16.1838  -27.6274   -1.8599 C   0  0  0  0  0  0
   17.3012  -27.6570   -1.0886 N   0  0  0  0  0  0
   17.6630  -26.5862   -0.3339 C   0  0  0  0  0  0
   18.8691  -26.6619    0.5415 C   0  0  0  0  0  0
   16.8948  -25.4665   -0.3373 N   0  0  0  0  0  0
   15.7684  -25.3916   -1.0916 C   0  0  0  0  0  0
   12.2298  -24.0889   -4.5014 C   0  0  0  0  0  0
   11.0781  -23.8866   -5.1806 N   0  0  0  0  0  0
   10.8109  -23.0256   -6.1715 C   0  0  0  0  0  0
    9.4886  -23.2145   -6.5286 C   0  0  0  0  0  0
    8.9358  -24.1861   -5.7641 N   0  0  0  0  0  0
    9.9468  -24.5664   -4.9529 C   0  0  0  0  0  0
    8.5466  -28.6160   -4.4855 C   0  0  0  0  0  0
    8.9327  -30.0456   -4.1061 C   0  0  0  0  0  0
    8.2687  -30.4225   -2.8506 N   0  0  0  0  0  0
    7.4591  -31.6151   -2.7918 C   0  0  0  0  0  0
    6.8320  -31.9908   -3.8211 O   0  0  0  0  0  0
    7.3958  -32.4675   -1.5388 C   0  0  0  0  0  0
    6.8412  -31.6801   -0.3482 C   0  0  0  0  0  0
    5.3678  -32.0653   -0.2074 C   0  0  0  0  0  0
    5.0890  -33.1699   -1.2222 C   0  0  0  0  0  0
    6.4431  -33.6449   -1.7233 C   0  0  0  0  0  0
   14.1583  -28.4406   -3.3527 H   0  0  0  0  0  0
  1  2  1  0  0  0
  1  3  1  0  0  0
  3  4  1  0  0  0
  4  5  1  0  0  0
  5  6  1  0  0  0
  6  7  2  0  0  0
  7  8  1  0  0  0
  7  9  1  0  0  0
  9 10  1  0  0  0
 10 11  2  0  0  0
 11 12  1  0  0  0
 11 13  1  0  0  0
 13 14  2  0  0  0
 14 15  1  0  0  0
 15 16  2  0  0  0
 16 17  1  0  0  0
 16 18  1  0  0  0
 18 19  2  0  0  0
  9 20  2  0  0  0
 20 21  1  0  0  0
 21 22  1  0  0  0
 22 23  2  0  0  0
 23 24  1  0  0  0
 24 25  2  0  0  0
  4 26  1  0  0  0
 26 27  1  0  0  0
 27 28  1  0  0  0
 28 29  1  0  0  0
 29 30  2  0  0  0
 29 31  1  0  0  0
 31 32  1  0  0  0
 32 33  1  0  0  0
 33 34  1  0  0  0
 34 35  1  0  0  0
 28  1  1  0  0  0
 35 31  1  0  0  0
 25  6  1  0  0  0
 19 13  1  0  0  0
 25 21  1  0  0  0
 12 36  1  0  0  0
M  END
>  <CHROM.0>
41.61079425,60.80993378,-162.58864667,15.63039116,8.09042523,-52.50070029
54.05420870

>  <CHROM.1>
131.79789936,-35.00287693,66.04624225,-177.05997396,-176.72399195,61.17539179
10.84099463,-27.73802046,-2.71999196,-2.65512985,-0.35402262,-0.57793811

>  <Name>

>  <RI>
0

>  <Rbt.Current_Directory>
/extra/banzai2/j5wagner/CELPP/2016_10_17_rdock_implementation/normal_run/tutorialVideo/tutorial_rdock_implementation/full_week_run/4-docking/5m96/LMCSS_4wqp_docking

>  <Rbt.Executable>
rbdock ($Id: //depot/dev/client3/rdock/2013.1/src/exe/rbdock.cxx#4 $)

>  <Rbt.Library>
libRbt.so (2013.1, Build901 2013/11/27)

>  <Rbt.Parameter_File>
/home/j5wagner/env_00/source/rDock/rDock_2013.1_src//data/scripts/dock.prm

>  <Rbt.Receptor>
/extra/banzai2/j5wagner/CELPP/2016_10_17_rdock_implementation/normal_run/tutorialVideo/tutorial_rdock_implementation/full_week_run/4-docking/5m96/LMCSS_4wqp_tech_prep/rDockGridGenInput.prm

>  <SCORE>
-22.8548

>  <SCORE.INTER>
-20.7382

>  <SCORE.INTER.CONST>
1

>  <SCORE.INTER.POLAR>
-0.917347

>  <SCORE.INTER.REPUL>
0

>  <SCORE.INTER.ROT>
5

>  <SCORE.INTER.VDW>
-28.0192

>  <SCORE.INTER.norm>
-0.592521

>  <SCORE.INTRA>
2.86776

>  <SCORE.INTRA.DIHEDRAL>
-1.00435

>  <SCORE.INTRA.DIHEDRAL.0>
9.74364

>  <SCORE.INTRA.POLAR>
0

>  <SCORE.INTRA.POLAR.0>
0

>  <SCORE.INTRA.REPUL>
-0.108387

>  <SCORE.INTRA.REPUL.0>
0.108387

>  <SCORE.INTRA.VDW>
3.91187

>  <SCORE.INTRA.VDW.0>
-2.87247

>  <SCORE.INTRA.norm>
0.0819359

>  <SCORE.RESTR>
0

>  <SCORE.RESTR.CAVITY>
0

>  <SCORE.RESTR.norm>
0

>  <SCORE.SYSTEM>
-4.9843

>  <SCORE.SYSTEM.CONST>
0

>  <SCORE.SYSTEM.DIHEDRAL>
3.45596

>  <SCORE.SYSTEM.POLAR>
-1.68597

>  <SCORE.SYSTEM.VDW>
-0.97997

>  <SCORE.SYSTEM.norm>
-0.142409

>  <SCORE.heavy>
35

>  <SCORE.norm>
-0.652993

$$$$

  rDOCK(R)          3D
libRbt.so/2013.1/901 2013/11/27
 36 40  0  0  0  0  0  0  0  0999 V2000
    7.6352  -30.6991   -2.4695 C   0  0  0  0  0  0
    8.4220  -31.0193   -1.1924 C   0  0  0  0  0  0
    7.3878  -29.1865   -2.6114 C   0  0  0  0  0  0
    8.6466  -28.4762   -2.9223 N   0  0  0  0  0  0
    8.4089  -27.0185   -2.9582 C   0  0  0  0  0  0
    9.6827  -26.2738   -3.3119 C   0  0  0  0  0  0
   10.8978  -26.3967   -2.5730 C   0  0  0  0  0  0
   10.9587  -27.2748   -1.3441 C   0  0  0  0  0  0
   12.0667  -25.7125   -3.0187 C   0  0  0  0  0  0
   13.2996  -25.8411   -2.2887 N   0  0  0  0  0  0
   14.1019  -26.8663   -2.3014 C   0  0  0  0  0  0
   13.7578  -28.0181   -3.0142 O   0  0  0  0  0  0
   15.3535  -26.8143   -1.5063 C   0  0  0  0  0  0
   15.6471  -25.7290   -0.6667 C   0  0  0  0  0  0
   16.8073  -25.7059    0.0388 N   0  0  0  0  0  0
   17.6989  -26.7286   -0.0406 C   0  0  0  0  0  0
   18.9879  -26.6564    0.7076 C   0  0  0  0  0  0
   17.4380  -27.7917   -0.8441 N   0  0  0  0  0  0
   16.2919  -27.8578   -1.5689 C   0  0  0  0  0  0
   11.9784  -24.8558   -4.1332 C   0  0  0  0  0  0
   10.7952  -24.7554   -4.7802 N   0  0  0  0  0  0
   10.4683  -24.0236   -5.8537 C   0  0  0  0  0  0
    9.1367  -24.2759   -6.1273 C   0  0  0  0  0  0
    8.6375  -25.1581   -5.2292 N   0  0  0  0  0  0
    9.6895  -25.4218   -4.4238 C   0  0  0  0  0  0
    9.1900  -28.9537   -4.2116 C   0  0  0  0  0  0
    9.5337  -30.4399   -4.1131 C   0  0  0  0  0  0
    8.3577  -31.1921   -3.6543 N   0  0  0  0  0  0
    7.8684  -32.3083   -4.4262 C   0  0  0  0  0  0
    7.9961  -32.2978   -5.6821 O   0  0  0  0  0  0
    7.2623  -33.5276   -3.7577 C   0  0  0  0  0  0
    5.7666  -33.6525   -4.0616 C   0  0  0  0  0  0
    5.6245  -34.6857   -5.1803 C   0  0  0  0  0  0
    7.0121  -35.2633   -5.4427 C   0  0  0  0  0  0
    7.8907  -34.8132   -4.2871 C   0  0  0  0  0  0
   14.3482  -28.8388   -3.0420 H   0  0  0  0  0  0
  1  2  1  0  0  0
  1  3  1  0  0  0
  3  4  1  0  0  0
  4  5  1  0  0  0
  5  6  1  0  0  0
  6  7  2  0  0  0
  7  8  1  0  0  0
  7  9  1  0  0  0
  9 10  1  0  0  0
 10 11  2  0  0  0
 11 12  1  0  0  0
 11 13  1  0  0  0
 13 14  2  0  0  0
 14 15  1  0  0  0
 15 16  2  0  0  0
 16 17  1  0  0  0
 16 18  1  0  0  0
 18 19  2  0  0  0
  9 20  2  0  0  0
 20 21  1  0  0  0
 21 22  1  0  0  0
 22 23  2  0  0  0
 23 24  1  0  0  0
 24 25  2  0  0  0
  4 26  1  0  0  0
 26 27  1  0  0  0
 27 28  1  0  0  0
 28 29  1  0  0  0
 29 30  2  0  0  0
 29 31  1  0  0  0
 31 32  1  0  0  0
 32 33  1  0  0  0
 33 34  1  0  0  0
 34 35  1  0  0  0
 28  1  1  0  0  0
 35 31  1  0  0  0
 25  6  1  0  0  0
 19 13  1  0  0  0
 25 21  1  0  0  0
 12 36  1  0  0  0
M  END
>  <CHROM.0>
49.23389050,175.11679894,-172.11377440,14.37884723,-165.06740540,64.27763252
-52.24097450

>  <CHROM.1>
-178.51930634,-56.51320717,76.12983425,-179.36765477,4.64693892,112.87715093
10.84759324,-28.52713775,-3.12406528,-2.59250382,-0.46132536,-0.20071880

>  <Name>

>  <RI>
0

>  <Rbt.Current_Directory>
/extra/banzai2/j5wagner/CELPP/2016_10_17_rdock_implementation/normal_run/tutorialVideo/tutorial_rdock_implementation/full_week_run/4-docking/5m96/LMCSS_4wqp_docking

>  <Rbt.Executable>
rbdock ($Id: //depot/dev/client3/rdock/2013.1/src/exe/rbdock.cxx#4 $)

>  <Rbt.Library>
libRbt.so (2013.1, Build901 2013/11/27)

>  <Rbt.Parameter_File>
/home/j5wagner/env_00/source/rDock/rDock_2013.1_src//data/scripts/dock.prm

>  <Rbt.Receptor>
/extra/banzai2/j5wagner/CELPP/2016_10_17_rdock_implementation/normal_run/tutorialVideo/tutorial_rdock_implementation/full_week_run/4-docking/5m96/LMCSS_4wqp_tech_prep/rDockGridGenInput.prm

>  <SCORE>
-20.9558

>  <SCORE.INTER>
-16.3851

>  <SCORE.INTER.CONST>
1

>  <SCORE.INTER.POLAR>
-0.949327

>  <SCORE.INTER.REPUL>
0

>  <SCORE.INTER.ROT>
5

>  <SCORE.INTER.VDW>
-23.5574

>  <SCORE.INTER.norm>
-0.468147

>  <SCORE.INTRA>
0.37982

>  <SCORE.INTRA.DIHEDRAL>
0.663848

>  <SCORE.INTRA.DIHEDRAL.0>
9.74364

>  <SCORE.INTRA.POLAR>
0

>  <SCORE.INTRA.POLAR.0>
0

>  <SCORE.INTRA.REPUL>
-0.108387

>  <SCORE.INTRA.REPUL.0>
0.108387

>  <SCORE.INTRA.VDW>
0.589832

>  <SCORE.INTRA.VDW.0>
-2.87247

>  <SCORE.INTRA.norm>
0.010852

>  <SCORE.RESTR>
0

>  <SCORE.RESTR.CAVITY>
0

>  <SCORE.RESTR.norm>
0

>  <SCORE.SYSTEM>
-4.95048

>  <SCORE.SYSTEM.CONST>
0

>  <SCORE.SYSTEM.DIHEDRAL>
3.97803

>  <SCORE.SYSTEM.POLAR>
-2.00692

>  <SCORE.SYSTEM.VDW>
-0.115984

>  <SCORE.SYSTEM.norm>
-0.141442

>  <SCORE.heavy>
35

>  <SCORE.norm>
-0.598737

$$$$

  rDOCK(R)          3D
libRbt.so/2013.1/901 2013/11/27
 36 40  0  0  0  0  0  0  0  0999 V2000
    6.5611  -33.5515   -4.5366 C   0  0  0  0  0  0
    5.5070  -32.9287   -3.6127 C   0  0  0  0  0  0
    7.8556  -32.7190   -4.5519 C   0  0  0  0  0  0
    8.5695  -32.8359   -3.2625 N   0  0  0  0  0  0
    9.7558  -31.9554   -3.2598 C   0  0  0  0  0  0
    9.3453  -30.4993   -3.1430 C   0  0  0  0  0  0
    9.9902  -29.4402   -3.8500 C   0  0  0  0  0  0
   11.1724  -29.7293   -4.7465 C   0  0  0  0  0  0
    9.4929  -28.1090   -3.7335 C   0  0  0  0  0  0
   10.1273  -27.0369   -4.4529 N   0  0  0  0  0  0
   10.5715  -25.9229   -3.9465 C   0  0  0  0  0  0
   10.3805  -25.6428   -2.5907 O   0  0  0  0  0  0
   11.2299  -24.9359   -4.8374 C   0  0  0  0  0  0
   11.4118  -25.1868   -6.2060 C   0  0  0  0  0  0
   12.0293  -24.2678   -6.9925 N   0  0  0  0  0  0
   12.4716  -23.0887   -6.4814 C   0  0  0  0  0  0
   13.1896  -22.1168   -7.3570 C   0  0  0  0  0  0
   12.3062  -22.8202   -5.1607 N   0  0  0  0  0  0
   11.6958  -23.7093   -4.3358 C   0  0  0  0  0  0
    8.4257  -27.8489   -2.8518 C   0  0  0  0  0  0
    7.8691  -28.8858   -2.1857 N   0  0  0  0  0  0
    6.8544  -28.8931   -1.3111 C   0  0  0  0  0  0
    6.6651  -30.2053   -0.9189 C   0  0  0  0  0  0
    7.5572  -31.0097   -1.5444 N   0  0  0  0  0  0
    8.2738  -30.1566   -2.3083 C   0  0  0  0  0  0
    8.9567  -34.2430   -3.0261 C   0  0  0  0  0  0
    7.7064  -35.1160   -2.9199 C   0  0  0  0  0  0
    6.8670  -34.9279   -4.1113 N   0  0  0  0  0  0
    6.4648  -36.0680   -4.8984 C   0  0  0  0  0  0
    7.2320  -37.0672   -4.9804 O   0  0  0  0  0  0
    5.1096  -36.1223   -5.5776 C   0  0  0  0  0  0
    5.1996  -35.7110   -7.0499 C   0  0  0  0  0  0
    5.2218  -37.0007   -7.8717 C   0  0  0  0  0  0
    5.0126  -38.1598   -6.9019 C   0  0  0  0  0  0
    4.5576  -37.5446   -5.5886 C   0  0  0  0  0  0
    9.8220  -26.2305   -1.9860 H   0  0  0  0  0  0
  1  2  1  0  0  0
  1  3  1  0  0  0
  3  4  1  0  0  0
  4  5  1  0  0  0
  5  6  1  0  0  0
  6  7  2  0  0  0
  7  8  1  0  0  0
  7  9  1  0  0  0
  9 10  1  0  0  0
 10 11  2  0  0  0
 11 12  1  0  0  0
 11 13  1  0  0  0
 13 14  2  0  0  0
 14 15  1  0  0  0
 15 16  2  0  0  0
 16 17  1  0  0  0
 16 18  1  0  0  0
 18 19  2  0  0  0
  9 20  2  0  0  0
 20 21  1  0  0  0
 21 22  1  0  0  0
 22 23  2  0  0  0
 23 24  1  0  0  0
 24 25  2  0  0  0
  4 26  1  0  0  0
 26 27  1  0  0  0
 27 28  1  0  0  0
 28 29  1  0  0  0
 29 30  2  0  0  0
 29 31  1  0  0  0
 31 32  1  0  0  0
 32 33  1  0  0  0
 33 34  1  0  0  0
 34 35  1  0  0  0
 28  1  1  0  0  0
 35 31  1  0  0  0
 25  6  1  0  0  0
 19 13  1  0  0  0
 25 21  1  0  0  0
 12 36  1  0  0  0
M  END
>  <CHROM.0>
-13.24070367,62.33101012,1.76028488,12.37924141,9.40128665,65.63180542,-54.14348825

>  <CHROM.1>
72.73247722,-141.27866292,-126.50117145,-6.41340004,-1.44072249,97.51572862
8.60053126,-30.50781008,-4.32904156,-2.71924127,1.07937306,1.10669209

>  <Name>

>  <RI>
0

>  <Rbt.Current_Directory>
/extra/banzai2/j5wagner/CELPP/2016_10_17_rdock_implementation/normal_run/tutorialVideo/tutorial_rdock_implementation/full_week_run/4-docking/5m96/LMCSS_4wqp_docking

>  <Rbt.Executable>
rbdock ($Id: //depot/dev/client3/rdock/2013.1/src/exe/rbdock.cxx#4 $)

>  <Rbt.Library>
libRbt.so (2013.1, Build901 2013/11/27)

>  <Rbt.Parameter_File>
/home/j5wagner/env_00/source/rDock/rDock_2013.1_src//data/scripts/dock.prm

>  <Rbt.Receptor>
/extra/banzai2/j5wagner/CELPP/2016_10_17_rdock_implementation/normal_run/tutorialVideo/tutorial_rdock_implementation/full_week_run/4-docking/5m96/LMCSS_4wqp_tech_prep/rDockGridGenInput.prm

>  <SCORE>
-29.2694

>  <SCORE.INTER>
-19.534

>  <SCORE.INTER.CONST>
1

>  <SCORE.INTER.POLAR>
-0.402389

>  <SCORE.INTER.REPUL>
0

>  <SCORE.INTER.ROT>
5

>  <SCORE.INTER.VDW>
-28.5659

>  <SCORE.INTER.norm>
-0.558114

>  <SCORE.INTRA>
1.40657

>  <SCORE.INTRA.DIHEDRAL>
-1.81084

>  <SCORE.INTRA.DIHEDRAL.0>
9.74364

>  <SCORE.INTRA.POLAR>
0

>  <SCORE.INTRA.POLAR.0>
0

>  <SCORE.INTRA.REPUL>
0.258147

>  <SCORE.INTRA.REPUL.0>
0.108387

>  <SCORE.INTRA.VDW>
1.02125

>  <SCORE.INTRA.VDW.0>
-2.87247

>  <SCORE.INTRA.norm>
0.0401876

>  <SCORE.RESTR>
0.00373322

>  <SCORE.RESTR.CAVITY>
0.00373322

>  <SCORE.RESTR.norm>
0.000106663

>  <SCORE.SYSTEM>
-11.1457

>  <SCORE.SYSTEM.CONST>
0

>  <SCORE.SYSTEM.DIHEDRAL>
0.962452

>  <SCORE.SYSTEM.POLAR>
-3.44271

>  <SCORE.SYSTEM.VDW>
0.0783322

>  <SCORE.SYSTEM.norm>
-0.318447

>  <SCORE.heavy>
35

>  <SCORE.norm>
-0.836267

$$$$

  rDOCK(R)          3D
libRbt.so/2013.1/901 2013/11/27
 36 40  0  0  0  0  0  0  0  0999 V2000
    6.2332  -34.7915   -4.9114 C   0  0  0  0  0  0
    4.9973  -34.0330   -4.4116 C   0  0  0  0  0  0
    7.5183  -33.9711   -4.6999 C   0  0  0  0  0  0
    7.8555  -33.8861   -3.2629 N   0  0  0  0  0  0
    9.0336  -33.0155   -3.0708 C   0  0  0  0  0  0
    8.6282  -31.6888   -2.4563 C   0  0  0  0  0  0
    8.8832  -30.4258   -3.0706 C   0  0  0  0  0  0
    9.6252  -30.3520   -4.3854 C   0  0  0  0  0  0
    8.4046  -29.2323   -2.4545 C   0  0  0  0  0  0
    8.6444  -27.9557   -3.0729 N   0  0  0  0  0  0
    9.7849  -27.3315   -3.1398 C   0  0  0  0  0  0
   10.9128  -27.8605   -2.5065 O   0  0  0  0  0  0
    9.8554  -26.0290   -3.8469 C   0  0  0  0  0  0
   10.9411  -25.1568   -3.6753 C   0  0  0  0  0  0
   10.9700  -23.9660   -4.3277 N   0  0  0  0  0  0
    9.9639  -23.5980   -5.1640 C   0  0  0  0  0  0
    9.9967  -22.2637   -5.8314 C   0  0  0  0  0  0
    8.9026  -24.4246   -5.3493 N   0  0  0  0  0  0
    8.8299  -25.6241   -4.7174 C   0  0  0  0  0  0
    7.7635  -29.3146   -1.2030 C   0  0  0  0  0  0
    7.5720  -30.5349   -0.6529 N   0  0  0  0  0  0
    6.9901  -30.8670    0.5071 C   0  0  0  0  0  0
    7.0407  -32.2451    0.6074 C   0  0  0  0  0  0
    7.6514  -32.7675   -0.4826 N   0  0  0  0  0  0
    7.9602  -31.6820   -1.2251 C   0  0  0  0  0  0
    8.1061  -35.2392   -2.7227 C   0  0  0  0  0  0
    6.8376  -36.0855   -2.8298 C   0  0  0  0  0  0
    6.3562  -36.0850   -4.2181 N   0  0  0  0  0  0
    6.1320  -37.3337   -4.9050 C   0  0  0  0  0  0
    6.8507  -38.3333   -4.6257 O   0  0  0  0  0  0
    5.0070  -37.4931   -5.9098 C   0  0  0  0  0  0
    5.0990  -36.4526   -7.0296 C   0  0  0  0  0  0
    5.7397  -37.1480   -8.2317 C   0  0  0  0  0  0
    5.9026  -38.6211   -7.8695 C   0  0  0  0  0  0
    5.0835  -38.8470   -6.6092 C   0  0  0  0  0  0
   10.8964  -28.7415   -2.0100 H   0  0  0  0  0  0
  1  2  1  0  0  0
  1  3  1  0  0  0
  3  4  1  0  0  0
  4  5  1  0  0  0
  5  6  1  0  0  0
  6  7  2  0  0  0
  7  8  1  0  0  0
  7  9  1  0  0  0
  9 10  1  0  0  0
 10 11  2  0  0  0
 11 12  1  0  0  0
 11 13  1  0  0  0
 13 14  2  0  0  0
 14 15  1  0  0  0
 15 16  2  0  0  0
 16 17  1  0  0  0
 16 18  1  0  0  0
 18 19  2  0  0  0
  9 20  2  0  0  0
 20 21  1  0  0  0
 21 22  1  0  0  0
 22 23  2  0  0  0
 23 24  1  0  0  0
 24 25  2  0  0  0
  4 26  1  0  0  0
 26 27  1  0  0  0
 27 28  1  0  0  0
 28 29  1  0  0  0
 29 30  2  0  0  0
 29 31  1  0  0  0
 31 32  1  0  0  0
 32 33  1  0  0  0
 33 34  1  0  0  0
 34 35  1  0  0  0
 28  1  1  0  0  0
 35 31  1  0  0  0
 25  6  1  0  0  0
 19 13  1  0  0  0
 25 21  1  0  0  0
 12 36  1  0  0  0
M  END
>  <CHROM.0>
13.30375123,58.05225343,14.01581354,-118.90160977,8.81955468,65.14599130
54.78062300

>  <CHROM.1>
107.32187739,-121.90481135,-72.24645297,2.04838977,163.81027186,56.17172717
7.88185757,-31.62763618,-3.79760671,3.03163862,1.25590309,1.81533905

>  <Name>

>  <RI>
0

>  <Rbt.Current_Directory>
/extra/banzai2/j5wagner/CELPP/2016_10_17_rdock_implementation/normal_run/tutorialVideo/tutorial_rdock_implementation/full_week_run/4-docking/5m96/LMCSS_4wqp_docking

>  <Rbt.Executable>
rbdock ($Id: //depot/dev/client3/rdock/2013.1/src/exe/rbdock.cxx#4 $)

>  <Rbt.Library>
libRbt.so (2013.1, Build901 2013/11/27)

>  <Rbt.Parameter_File>
/home/j5wagner/env_00/source/rDock/rDock_2013.1_src//data/scripts/dock.prm

>  <Rbt.Receptor>
/extra/banzai2/j5wagner/CELPP/2016_10_17_rdock_implementation/normal_run/tutorialVideo/tutorial_rdock_implementation/full_week_run/4-docking/5m96/LMCSS_4wqp_tech_prep/rDockGridGenInput.prm

>  <SCORE>
-22.855

>  <SCORE.INTER>
-16.8563

>  <SCORE.INTER.CONST>
1

>  <SCORE.INTER.POLAR>
-0.959166

>  <SCORE.INTER.REPUL>
0.172702

>  <SCORE.INTER.ROT>
5

>  <SCORE.INTER.VDW>
-24.8587

>  <SCORE.INTER.norm>
-0.48161

>  <SCORE.INTRA>
0.8534

>  <SCORE.INTRA.DIHEDRAL>
0.615723

>  <SCORE.INTRA.DIHEDRAL.0>
9.74364

>  <SCORE.INTRA.POLAR>
0

>  <SCORE.INTRA.POLAR.0>
0

>  <SCORE.INTRA.REPUL>
-0.0546592

>  <SCORE.INTRA.REPUL.0>
0.108387

>  <SCORE.INTRA.VDW>
0.818834

>  <SCORE.INTRA.VDW.0>
-2.87247

>  <SCORE.INTRA.norm>
0.0243829

>  <SCORE.RESTR>
0

>  <SCORE.RESTR.CAVITY>
0

>  <SCORE.RESTR.norm>
0

>  <SCORE.SYSTEM>
-6.85204

>  <SCORE.SYSTEM.CONST>
0

>  <SCORE.SYSTEM.DIHEDRAL>
4.59641

>  <SCORE.SYSTEM.POLAR>
-2.37548

>  <SCORE.SYSTEM.REPUL>
0.00954415

>  <SCORE.SYSTEM.VDW>
-1.12133

>  <SCORE.SYSTEM.norm>
-0.195773

>  <SCORE.heavy>
35

>  <SCORE.norm>
-0.652999

$$$$

  rDOCK(R)          3D
libRbt.so/2013.1/901 2013/11/27
 36 40  0  0  0  0  0  0  0  0999 V2000
    6.0429  -35.0296   -3.7697 C   0  0  0  0  0  0
    6.5409  -35.3052   -2.3455 C   0  0  0  0  0  0
    5.6642  -33.5492   -3.9548 C   0  0  0  0  0  0
    6.8712  -32.6953   -3.9547 N   0  0  0  0  0  0
    6.4833  -31.2720   -4.0349 C   0  0  0  0  0  0
    7.3657  -30.4222   -3.1395 C   0  0  0  0  0  0
    8.1580  -29.3353   -3.6173 C   0  0  0  0  0  0
    8.1808  -28.9966   -5.0903 C   0  0  0  0  0  0
    8.9040  -28.5465   -2.6930 C   0  0  0  0  0  0
    9.6945  -27.4404   -3.1632 N   0  0  0  0  0  0
   10.9917  -27.4070   -3.2683 C   0  0  0  0  0  0
   11.7595  -28.4896   -2.8304 O   0  0  0  0  0  0
   11.6421  -26.1861   -3.8048 C   0  0  0  0  0  0
   12.9952  -25.9056   -3.5604 C   0  0  0  0  0  0
   13.5579  -24.7731   -4.0556 N   0  0  0  0  0  0
   12.8352  -23.8976   -4.8027 C   0  0  0  0  0  0
   13.4646  -22.6372   -5.2944 C   0  0  0  0  0  0
   11.5245  -24.1463   -5.0556 N   0  0  0  0  0  0
   10.9190  -25.2648   -4.5804 C   0  0  0  0  0  0
    8.9149  -28.9094   -1.3322 C   0  0  0  0  0  0
    8.1675  -29.9651   -0.9378 N   0  0  0  0  0  0
    8.0105  -30.4915    0.2840 C   0  0  0  0  0  0
    7.1386  -31.5572    0.1585 C   0  0  0  0  0  0
    6.7561  -31.6941   -1.1335 N   0  0  0  0  0  0
    7.4129  -30.6980   -1.7669 C   0  0  0  0  0  0
    7.7516  -33.0663   -5.0829 C   0  0  0  0  0  0
    8.2304  -34.5084   -4.9170 C   0  0  0  0  0  0
    7.0737  -35.3999   -4.7542 N   0  0  0  0  0  0
    6.9092  -36.5360   -5.6280 C   0  0  0  0  0  0
    7.3246  -36.4687   -6.8182 O   0  0  0  0  0  0
    6.3072  -37.8363   -5.1305 C   0  0  0  0  0  0
    4.7930  -37.7185   -4.9349 C   0  0  0  0  0  0
    4.1352  -38.3448   -6.1655 C   0  0  0  0  0  0
    5.2485  -38.9462   -7.0178 C   0  0  0  0  0  0
    6.4968  -38.9548   -6.1507 C   0  0  0  0  0  0
   12.7708  -28.4817   -2.8440 H   0  0  0  0  0  0
  1  2  1  0  0  0
  1  3  1  0  0  0
  3  4  1  0  0  0
  4  5  1  0  0  0
  5  6  1  0  0  0
  6  7  2  0  0  0
  7  8  1  0  0  0
  7  9  1  0  0  0
  9 10  1  0  0  0
 10 11  2  0  0  0
 11 12  1  0  0  0
 11 13  1  0  0  0
 13 14  2  0  0  0
 14 15  1  0  0  0
 15 16  2  0  0  0
 16 17  1  0  0  0
 16 18  1  0  0  0
 18 19  2  0  0  0
  9 20  2  0  0  0
 20 21  1  0  0  0
 21 22  1  0  0  0
 22 23  2  0  0  0
 23 24  1  0  0  0
 24 25  2  0  0  0
  4 26  1  0  0  0
 26 27  1  0  0  0
 27 28  1  0  0  0
 28 29  1  0  0  0
 29 30  2  0  0  0
 29 31  1  0  0  0
 31 32  1  0  0  0
 32 33  1  0  0  0
 33 34  1  0  0  0
 34 35  1  0  0  0
 28  1  1  0  0  0
 35 31  1  0  0  0
 25  6  1  0  0  0
 19 13  1  0  0  0
 25 21  1  0  0  0
 12 36  1  0  0  0
M  END
>  <CHROM.0>
15.61769766,63.02924764,-164.27749393,-114.72589735,8.99818160,-179.88252429
-52.52549274

>  <CHROM.1>
140.39057434,121.74765167,-105.46968566,-176.32484069,159.46792195,74.09176846
8.39972230,-31.28036329,-3.87455166,2.46252018,-0.95372697,-2.23294966

>  <Name>

>  <RI>
0

>  <Rbt.Current_Directory>
/extra/banzai2/j5wagner/CELPP/2016_10_17_rdock_implementation/normal_run/tutorialVideo/tutorial_rdock_implementation/full_week_run/4-docking/5m96/LMCSS_4wqp_docking

>  <Rbt.Executable>
rbdock ($Id: //depot/dev/client3/rdock/2013.1/src/exe/rbdock.cxx#4 $)

>  <Rbt.Library>
libRbt.so (2013.1, Build901 2013/11/27)

>  <Rbt.Parameter_File>
/home/j5wagner/env_00/source/rDock/rDock_2013.1_src//data/scripts/dock.prm

>  <Rbt.Receptor>
/extra/banzai2/j5wagner/CELPP/2016_10_17_rdock_implementation/normal_run/tutorialVideo/tutorial_rdock_implementation/full_week_run/4-docking/5m96/LMCSS_4wqp_tech_prep/rDockGridGenInput.prm

>  <SCORE>
-10.0205

>  <SCORE.INTER>
-2.87261

>  <SCORE.INTER.CONST>
1

>  <SCORE.INTER.POLAR>
0

>  <SCORE.INTER.REPUL>
0

>  <SCORE.INTER.ROT>
5

>  <SCORE.INTER.VDW>
-13.2726

>  <SCORE.INTER.norm>
-0.0820745

>  <SCORE.INTRA>
0.435581

>  <SCORE.INTRA.DIHEDRAL>
0.801958

>  <SCORE.INTRA.DIHEDRAL.0>
9.74364

>  <SCORE.INTRA.POLAR>
0

>  <SCORE.INTRA.POLAR.0>
0

>  <SCORE.INTRA.REPUL>
-0.0118153

>  <SCORE.INTRA.REPUL.0>
0.108387

>  <SCORE.INTRA.VDW>
0.0936787

>  <SCORE.INTRA.VDW.0>
-2.87247

>  <SCORE.INTRA.norm>
0.0124452

>  <SCORE.RESTR>
0

>  <SCORE.RESTR.CAVITY>
0

>  <SCORE.RESTR.norm>
0

>  <SCORE.SYSTEM>
-7.58352

>  <SCORE.SYSTEM.CONST>
0

>  <SCORE.SYSTEM.DIHEDRAL>
5.08811

>  <SCORE.SYSTEM.POLAR>
-2.7997

>  <SCORE.SYSTEM.VDW>
-0.608602

>  <SCORE.SYSTEM.norm>
-0.216672

>  <SCORE.heavy>
35

>  <SCORE.norm>
-0.286301

$$$$

  rDOCK(R)          3D
libRbt.so/2013.1/901 2013/11/27
 36 40  0  0  0  0  0  0  0  0999 V2000
    8.7929  -31.4957   -3.4532 C   0  0  0  0  0  0
    9.0264  -31.1266   -4.9234 C   0  0  0  0  0  0
    9.1310  -30.3199   -2.5192 C   0  0  0  0  0  0
    8.1323  -29.2383   -2.6552 N   0  0  0  0  0  0
    8.5253  -28.0802   -1.8262 C   0  0  0  0  0  0
    9.7031  -27.3504   -2.4445 C   0  0  0  0  0  0
   11.0203  -27.3734   -1.8950 C   0  0  0  0  0  0
   11.2991  -28.1206   -0.6108 C   0  0  0  0  0  0
   12.0826  -26.7152   -2.5815 C   0  0  0  0  0  0
   13.4163  -26.7446   -2.0429 N   0  0  0  0  0  0
   13.8261  -26.1477   -0.9610 C   0  0  0  0  0  0
   12.9573  -25.3210   -0.2434 O   0  0  0  0  0  0
   15.2378  -26.3126   -0.5352 C   0  0  0  0  0  0
   15.6369  -26.0892    0.7914 C   0  0  0  0  0  0
   16.9393  -26.2369    1.1467 N   0  0  0  0  0  0
   17.8777  -26.6126    0.2381 C   0  0  0  0  0  0
   19.3096  -26.7211    0.6435 C   0  0  0  0  0  0
   17.5176  -26.8370   -1.0518 N   0  0  0  0  0  0
   16.2278  -26.7006   -1.4533 C   0  0  0  0  0  0
   11.7951  -25.9783   -3.7468 C   0  0  0  0  0  0
   10.5243  -25.9677   -4.2088 N   0  0  0  0  0  0
   10.0117  -25.3556   -5.2845 C   0  0  0  0  0  0
    8.6636  -25.6606   -5.3220 C   0  0  0  0  0  0
    8.3388  -26.4565   -4.2755 N   0  0  0  0  0  0
    9.5100  -26.6160   -3.6216 C   0  0  0  0  0  0
    6.7950  -29.7349   -2.2672 C   0  0  0  0  0  0
    6.3625  -30.8571   -3.2108 C   0  0  0  0  0  0
    7.3935  -31.9037   -3.2428 N   0  0  0  0  0  0
    7.0419  -33.2725   -2.9531 C   0  0  0  0  0  0
    6.1095  -33.5143   -2.1370 O   0  0  0  0  0  0
    7.7229  -34.4304   -3.6574 C   0  0  0  0  0  0
    7.0593  -35.7675   -3.3158 C   0  0  0  0  0  0
    6.1355  -36.1171   -4.4836 C   0  0  0  0  0  0
    6.3524  -35.0624   -5.5645 C   0  0  0  0  0  0
    7.6057  -34.2968   -5.1727 C   0  0  0  0  0  0
   13.2627  -24.7579    0.5393 H   0  0  0  0  0  0
  1  2  1  0  0  0
  1  3  1  0  0  0
  3  4  1  0  0  0
  4  5  1  0  0  0
  5  6  1  0  0  0
  6  7  2  0  0  0
  7  8  1  0  0  0
  7  9  1  0  0  0
  9 10  1  0  0  0
 10 11  2  0  0  0
 11 12  1  0  0  0
 11 13  1  0  0  0
 13 14  2  0  0  0
 14 15  1  0  0  0
 15 16  2  0  0  0
 16 17  1  0  0  0
 16 18  1  0  0  0
 18 19  2  0  0  0
  9 20  2  0  0  0
 20 21  1  0  0  0
 21 22  1  0  0  0
 22 23  2  0  0  0
 23 24  1  0  0  0
 24 25  2  0  0  0
  4 26  1  0  0  0
 26 27  1  0  0  0
 27 28  1  0  0  0
 28 29  1  0  0  0
 29 30  2  0  0  0
 29 31  1  0  0  0
 31 32  1  0  0  0
 32 33  1  0  0  0
 33 34  1  0  0  0
 34 35  1  0  0  0
 28  1  1  0  0  0
 35 31  1  0  0  0
 25  6  1  0  0  0
 19 13  1  0  0  0
 25 21  1  0  0  0
 12 36  1  0  0  0
M  END
>  <CHROM.0>
101.57731717,60.66413480,-158.51569766,66.95149699,7.57627544,-175.99273365
-52.64170268

>  <CHROM.1>
73.02912468,-108.93932690,-68.84178343,-172.87935245,-158.68949966,-172.70181289
10.64533217,-29.04358780,-2.52919380,-2.54887611,-0.45584093,-0.14687280

>  <Name>

>  <RI>
0

>  <Rbt.Current_Directory>
/extra/banzai2/j5wagner/CELPP/2016_10_17_rdock_implementation/normal_run/tutorialVideo/tutorial_rdock_implementation/full_week_run/4-docking/5m96/LMCSS_4wqp_docking

>  <Rbt.Executable>
rbdock ($Id: //depot/dev/client3/rdock/2013.1/src/exe/rbdock.cxx#4 $)

>  <Rbt.Library>
libRbt.so (2013.1, Build901 2013/11/27)

>  <Rbt.Parameter_File>
/home/j5wagner/env_00/source/rDock/rDock_2013.1_src//data/scripts/dock.prm

>  <Rbt.Receptor>
/extra/banzai2/j5wagner/CELPP/2016_10_17_rdock_implementation/normal_run/tutorialVideo/tutorial_rdock_implementation/full_week_run/4-docking/5m96/LMCSS_4wqp_tech_prep/rDockGridGenInput.prm

>  <SCORE>
-25.7078

>  <SCORE.INTER>
-19.3669

>  <SCORE.INTER.CONST>
1

>  <SCORE.INTER.POLAR>
-0.528618

>  <SCORE.INTER.REPUL>
0.094355

>  <SCORE.INTER.ROT>
5

>  <SCORE.INTER.VDW>
-28.4413

>  <SCORE.INTER.norm>
-0.553339

>  <SCORE.INTRA>
-0.356455

>  <SCORE.INTRA.DIHEDRAL>
-0.280192

>  <SCORE.INTRA.DIHEDRAL.0>
9.74364

>  <SCORE.INTRA.POLAR>
0

>  <SCORE.INTRA.POLAR.0>
0

>  <SCORE.INTRA.REPUL>
-0.10427

>  <SCORE.INTRA.REPUL.0>
0.108387

>  <SCORE.INTRA.VDW>
0.304989

>  <SCORE.INTRA.VDW.0>
-2.87247

>  <SCORE.INTRA.norm>
-0.0101844

>  <SCORE.RESTR>
0

>  <SCORE.RESTR.CAVITY>
0

>  <SCORE.RESTR.norm>
0

>  <SCORE.SYSTEM>
-5.98448

>  <SCORE.SYSTEM.CONST>
0

>  <SCORE.SYSTEM.DIHEDRAL>
9.73067

>  <SCORE.SYSTEM.POLAR>
-2.8131

>  <SCORE.SYSTEM.VDW>
-1.28526

>  <SCORE.SYSTEM.norm>
-0.170985

>  <SCORE.heavy>
35

>  <SCORE.norm>
-0.734508

$$$$

  rDOCK(R)          3D
libRbt.so/2013.1/901 2013/11/27
 36 40  0  0  0  0  0  0  0  0999 V2000
    6.6744  -33.3010   -4.5721 C   0  0  0  0  0  0
    5.6545  -32.6763   -3.6118 C   0  0  0  0  0  0
    7.9689  -32.4704   -4.6333 C   0  0  0  0  0  0
    8.7276  -32.5880   -3.3698 N   0  0  0  0  0  0
    9.9146  -31.7093   -3.4093 C   0  0  0  0  0  0
    9.5134  -30.2549   -3.2479 C   0  0  0  0  0  0
   10.2063  -29.1732   -3.8703 C   0  0  0  0  0  0
   11.4319  -29.4365   -4.7149 C   0  0  0  0  0  0
    9.7171  -27.8424   -3.7196 C   0  0  0  0  0  0
   10.4004  -26.7471   -4.3544 N   0  0  0  0  0  0
    9.8490  -25.6837   -4.8643 C   0  0  0  0  0  0
    8.4571  -25.5626   -4.8989 O   0  0  0  0  0  0
   10.7147  -24.6338   -5.4558 C   0  0  0  0  0  0
   12.1084  -24.7820   -5.5244 C   0  0  0  0  0  0
   12.8741  -23.7971   -6.0610 N   0  0  0  0  0  0
   12.3146  -22.6595   -6.5509 C   0  0  0  0  0  0
   13.1821  -21.5723   -7.0912 C   0  0  0  0  0  0
   10.9681  -22.4919   -6.4985 N   0  0  0  0  0  0
   10.1628  -23.4488   -5.9700 C   0  0  0  0  0  0
    8.6068  -27.6089   -2.8850 C   0  0  0  0  0  0
    8.0045  -28.6676   -2.2977 N   0  0  0  0  0  0
    6.9442  -28.7015   -1.4797 C   0  0  0  0  0  0
    6.7206  -30.0277   -1.1587 C   0  0  0  0  0  0
    7.6367  -30.8143   -1.7719 N   0  0  0  0  0  0
    8.4021  -29.9367   -2.4567 C   0  0  0  0  0  0
    9.1208  -33.9956   -3.1468 C   0  0  0  0  0  0
    7.8737  -34.8668   -2.9963 C   0  0  0  0  0  0
    6.9930  -34.6777   -4.1574 N   0  0  0  0  0  0
    6.5616  -35.8174   -4.9294 C   0  0  0  0  0  0
    7.3239  -36.8178   -5.0381 O   0  0  0  0  0  0
    5.1833  -35.8698   -5.5604 C   0  0  0  0  0  0
    5.2532  -35.7143   -7.0822 C   0  0  0  0  0  0
    5.1456  -37.1186   -7.6785 C   0  0  0  0  0  0
    4.8808  -38.0816   -6.5252 C   0  0  0  0  0  0
    4.5218  -37.2240   -5.3228 C   0  0  0  0  0  0
    7.8378  -26.3028   -4.5964 H   0  0  0  0  0  0
  1  2  1  0  0  0
  1  3  1  0  0  0
  3  4  1  0  0  0
  4  5  1  0  0  0
  5  6  1  0  0  0
  6  7  2  0  0  0
  7  8  1  0  0  0
  7  9  1  0  0  0
  9 10  1  0  0  0
 10 11  2  0  0  0
 11 12  1  0  0  0
 11 13  1  0  0  0
 13 14  2  0  0  0
 14 15  1  0  0  0
 15 16  2  0  0  0
 16 17  1  0  0  0
 16 18  1  0  0  0
 18 19  2  0  0  0
  9 20  2  0  0  0
 20 21  1  0  0  0
 21 22  1  0  0  0
 22 23  2  0  0  0
 23 24  1  0  0  0
 24 25  2  0  0  0
  4 26  1  0  0  0
 26 27  1  0  0  0
 27 28  1  0  0  0
 28 29  1  0  0  0
 29 30  2  0  0  0
 29 31  1  0  0  0
 31 32  1  0  0  0
 32 33  1  0  0  0
 33 34  1  0  0  0
 34 35  1  0  0  0
 28  1  1  0  0  0
 35 31  1  0  0  0
 25  6  1  0  0  0
 19 13  1  0  0  0
 25 21  1  0  0  0
 12 36  1  0  0  0
M  END
>  <CHROM.0>
15.56087247,58.90895537,6.18381535,13.05642326,8.97562500,-53.88948410,-55.42152728

>  <CHROM.1>
73.97792140,-147.35880391,144.76286103,-4.24269839,2.44912090,108.05137298
8.54473368,-30.26138426,-4.50379740,-2.83399369,1.13526847,1.19803832

>  <Name>

>  <RI>
0

>  <Rbt.Current_Directory>
/extra/banzai2/j5wagner/CELPP/2016_10_17_rdock_implementation/normal_run/tutorialVideo/tutorial_rdock_implementation/full_week_run/4-docking/5m96/LMCSS_4wqp_docking

>  <Rbt.Executable>
rbdock ($Id: //depot/dev/client3/rdock/2013.1/src/exe/rbdock.cxx#4 $)

>  <Rbt.Library>
libRbt.so (2013.1, Build901 2013/11/27)

>  <Rbt.Parameter_File>
/home/j5wagner/env_00/source/rDock/rDock_2013.1_src//data/scripts/dock.prm

>  <Rbt.Receptor>
/extra/banzai2/j5wagner/CELPP/2016_10_17_rdock_implementation/normal_run/tutorialVideo/tutorial_rdock_implementation/full_week_run/4-docking/5m96/LMCSS_4wqp_tech_prep/rDockGridGenInput.prm

>  <SCORE>
-30.2337

>  <SCORE.INTER>
-23.3136

>  <SCORE.INTER.CONST>
1

>  <SCORE.INTER.POLAR>
-0.990279

>  <SCORE.INTER.REPUL>
0

>  <SCORE.INTER.ROT>
5

>  <SCORE.INTER.VDW>
-30.3467

>  <SCORE.INTER.norm>
-0.666104

>  <SCORE.INTRA>
1.61976

>  <SCORE.INTRA.DIHEDRAL>
-2.7423

>  <SCORE.INTRA.DIHEDRAL.0>
9.74364

>  <SCORE.INTRA.POLAR>
0

>  <SCORE.INTRA.POLAR.0>
0

>  <SCORE.INTRA.REPUL>
0.329758

>  <SCORE.INTRA.REPUL.0>
0.108387

>  <SCORE.INTRA.VDW>
1.34212

>  <SCORE.INTRA.VDW.0>
-2.87247

>  <SCORE.INTRA.norm>
0.0462788

>  <SCORE.RESTR>
0

>  <SCORE.RESTR.CAVITY>
0

>  <SCORE.RESTR.norm>
0

>  <SCORE.SYSTEM>
-8.53984

>  <SCORE.SYSTEM.CONST>
0

>  <SCORE.SYSTEM.DIHEDRAL>
1.06984

>  <SCORE.SYSTEM.POLAR>
-2.79912

>  <SCORE.SYSTEM.REPUL>
0.0197657

>  <SCORE.SYSTEM.VDW>
0.343427

>  <SCORE.SYSTEM.norm>
-0.243996

>  <SCORE.heavy>
35

>  <SCORE.norm>
-0.863821

$$$$

  rDOCK(R)          3D
libRbt.so/2013.1/901 2013/11/27
 36 40  0  0  0  0  0  0  0  0999 V2000
   11.7383  -25.4781   -4.2358 C   0  0  0  0  0  0
   12.4685  -25.5548   -2.8891 C   0  0  0  0  0  0
   11.5856  -26.8718   -4.8711 C   0  0  0  0  0  0
   10.6104  -27.6879   -4.1170 N   0  0  0  0  0  0
   10.5493  -29.0520   -4.6811 C   0  0  0  0  0  0
    9.5959  -29.9222   -3.8838 C   0  0  0  0  0  0
    8.8735  -31.0180   -4.4449 C   0  0  0  0  0  0
    9.0042  -31.3462   -5.9147 C   0  0  0  0  0  0
    8.0518  -31.8254   -3.6048 C   0  0  0  0  0  0
    7.3308  -32.9405   -4.1582 N   0  0  0  0  0  0
    7.2789  -34.1462   -3.6701 C   0  0  0  0  0  0
    8.0322  -34.4794   -2.5410 O   0  0  0  0  0  0
    6.4563  -35.1704   -4.3599 C   0  0  0  0  0  0
    5.7680  -34.8826   -5.5485 C   0  0  0  0  0  0
    5.0135  -35.8388   -6.1491 N   0  0  0  0  0  0
    4.9164  -37.0894   -5.6259 C   0  0  0  0  0  0
    4.0425  -38.1074   -6.2791 C   0  0  0  0  0  0
    5.5741  -37.3945   -4.4777 N   0  0  0  0  0  0
    6.3391  -36.4707   -3.8416 C   0  0  0  0  0  0
    7.8985  -31.4728   -2.2498 C   0  0  0  0  0  0
    8.5850  -30.4083   -1.7764 N   0  0  0  0  0  0
    8.6099  -29.8884   -0.5420 C   0  0  0  0  0  0
    9.4723  -28.8081   -0.5732 C   0  0  0  0  0  0
    9.9800  -28.6556   -1.8194 N   0  0  0  0  0  0
    9.4067  -29.6574   -2.5212 C   0  0  0  0  0  0
    9.2803  -27.0433   -4.1508 C   0  0  0  0  0  0
    9.3444  -25.6811   -3.4603 C   0  0  0  0  0  0
   10.4089  -24.8679   -4.0644 N   0  0  0  0  0  0
   10.1095  -23.5542   -4.5798 C   0  0  0  0  0  0
    8.9676  -23.3239   -5.0664 O   0  0  0  0  0  0
   11.1141  -22.4212   -4.4903 C   0  0  0  0  0  0
   12.1219  -22.4686   -5.6423 C   0  0  0  0  0  0
   11.6579  -21.4471   -6.6818 C   0  0  0  0  0  0
   10.4615  -20.7088   -6.0892 C   0  0  0  0  0  0
   10.4248  -21.0655   -4.6121 C   0  0  0  0  0  0
    8.0587  -35.4161   -2.1603 H   0  0  0  0  0  0
  1  2  1  0  0  0
  1  3  1  0  0  0
  3  4  1  0  0  0
  4  5  1  0  0  0
  5  6  1  0  0  0
  6  7  2  0  0  0
  7  8  1  0  0  0
  7  9  1  0  0  0
  9 10  1  0  0  0
 10 11  2  0  0  0
 11 12  1  0  0  0
 11 13  1  0  0  0
 13 14  2  0  0  0
 14 15  1  0  0  0
 15 16  2  0  0  0
 16 17  1  0  0  0
 16 18  1  0  0  0
 18 19  2  0  0  0
  9 20  2  0  0  0
 20 21  1  0  0  0
 21 22  1  0  0  0
 22 23  2  0  0  0
 23 24  1  0  0  0
 24 25  2  0  0  0
  4 26  1  0  0  0
 26 27  1  0  0  0
 27 28  1  0  0  0
 28 29  1  0  0  0
 29 30  2  0  0  0
 29 31  1  0  0  0
 31 32  1  0  0  0
 32 33  1  0  0  0
 33 34  1  0  0  0
 34 35  1  0  0  0
 28  1  1  0  0  0
 35 31  1  0  0  0
 25  6  1  0  0  0
 19 13  1  0  0  0
 25 21  1  0  0  0
 12 36  1  0  0  0
M  END
>  <CHROM.0>
16.66447676,60.93141391,7.14394998,-115.04028864,-169.56039063,-53.13499941
-53.83952781

>  <CHROM.1>
177.63519845,151.31680570,132.55079930,-176.63116185,2.07886900,83.61184030
8.91046412,-29.27561707,-4.11851278,-0.73871792,1.05963306,2.36321700

>  <Name>

>  <RI>
0

>  <Rbt.Current_Directory>
/extra/banzai2/j5wagner/CELPP/2016_10_17_rdock_implementation/normal_run/tutorialVideo/tutorial_rdock_implementation/full_week_run/4-docking/5m96/LMCSS_4wqp_docking

>  <Rbt.Executable>
rbdock ($Id: //depot/dev/client3/rdock/2013.1/src/exe/rbdock.cxx#4 $)

>  <Rbt.Library>
libRbt.so (2013.1, Build901 2013/11/27)

>  <Rbt.Parameter_File>
/home/j5wagner/env_00/source/rDock/rDock_2013.1_src//data/scripts/dock.prm

>  <Rbt.Receptor>
/extra/banzai2/j5wagner/CELPP/2016_10_17_rdock_implementation/normal_run/tutorialVideo/tutorial_rdock_implementation/full_week_run/4-docking/5m96/LMCSS_4wqp_tech_prep/rDockGridGenInput.prm

>  <SCORE>
-17.76

>  <SCORE.INTER>
-14.3484

>  <SCORE.INTER.CONST>
1

>  <SCORE.INTER.POLAR>
-0.516196

>  <SCORE.INTER.REPUL>
0

>  <SCORE.INTER.ROT>
5

>  <SCORE.INTER.VDW>
-22.9933

>  <SCORE.INTER.norm>
-0.409953

>  <SCORE.INTRA>
1.21403

>  <SCORE.INTRA.DIHEDRAL>
-3.85169

>  <SCORE.INTRA.DIHEDRAL.0>
9.74364

>  <SCORE.INTRA.POLAR>
0

>  <SCORE.INTRA.POLAR.0>
0

>  <SCORE.INTRA.REPUL>
0.290265

>  <SCORE.INTRA.REPUL.0>
0.108387

>  <SCORE.INTRA.VDW>
1.68855

>  <SCORE.INTRA.VDW.0>
-2.87247

>  <SCORE.INTRA.norm>
0.0346866

>  <SCORE.RESTR>
0.00924849

>  <SCORE.RESTR.CAVITY>
0.00924849

>  <SCORE.RESTR.norm>
0.000264243

>  <SCORE.SYSTEM>
-4.63494

>  <SCORE.SYSTEM.CONST>
0

>  <SCORE.SYSTEM.DIHEDRAL>
4.97894

>  <SCORE.SYSTEM.POLAR>
-2.00374

>  <SCORE.SYSTEM.REPUL>
0.00621845

>  <SCORE.SYSTEM.VDW>
-0.342787

>  <SCORE.SYSTEM.norm>
-0.132427

>  <SCORE.heavy>
35

>  <SCORE.norm>
-0.507429

$$$$

  rDOCK(R)          3D
libRbt.so/2013.1/901 2013/11/27
 36 40  0  0  0  0  0  0  0  0999 V2000
   10.3546  -28.4325   -3.6848 C   0  0  0  0  0  0
   11.1481  -29.7400   -3.7997 C   0  0  0  0  0  0
    8.8573  -28.7037   -3.4527 C   0  0  0  0  0  0
    8.6263  -29.2431   -2.0956 N   0  0  0  0  0  0
    7.2001  -29.5886   -1.9250 C   0  0  0  0  0  0
    7.0315  -31.0778   -1.6879 C   0  0  0  0  0  0
    6.9205  -32.0352   -2.7408 C   0  0  0  0  0  0
    6.9296  -31.5872   -4.1844 C   0  0  0  0  0  0
    6.8346  -33.4232   -2.4259 C   0  0  0  0  0  0
    6.7365  -34.3968   -3.4804 N   0  0  0  0  0  0
    6.4318  -35.6552   -3.3445 C   0  0  0  0  0  0
    6.2409  -36.1976   -2.0706 O   0  0  0  0  0  0
    6.3463  -36.5126   -4.5523 C   0  0  0  0  0  0
    6.0833  -37.8880   -4.4610 C   0  0  0  0  0  0
    6.0234  -38.6478   -5.5850 N   0  0  0  0  0  0
    6.2031  -38.0987   -6.8152 C   0  0  0  0  0  0
    6.1800  -38.9639   -8.0307 C   0  0  0  0  0  0
    6.4570  -36.7698   -6.9315 N   0  0  0  0  0  0
    6.5272  -35.9711   -5.8358 C   0  0  0  0  0  0
    6.7723  -33.8188   -1.0755 C   0  0  0  0  0  0
    6.8542  -32.8675   -0.1180 N   0  0  0  0  0  0
    6.8263  -32.9933    1.2154 C   0  0  0  0  0  0
    6.9502  -31.7227    1.7463 C   0  0  0  0  0  0
    7.0534  -30.8115    0.7497 N   0  0  0  0  0  0
    6.9882  -31.5596   -0.3732 C   0  0  0  0  0  0
    9.0549  -28.2568   -1.0811 C   0  0  0  0  0  0
   10.5569  -28.0013   -1.2056 C   0  0  0  0  0  0
   10.8810  -27.6080   -2.5839 N   0  0  0  0  0  0
   11.5930  -26.3788   -2.8354 C   0  0  0  0  0  0
   11.4263  -25.3956   -2.0612 O   0  0  0  0  0  0
   12.5902  -26.2603   -3.9721 C   0  0  0  0  0  0
   11.9043  -26.3631   -5.3373 C   0  0  0  0  0  0
   11.7381  -24.9356   -5.8606 C   0  0  0  0  0  0
   12.4392  -24.0068   -4.8740 C   0  0  0  0  0  0
   13.2719  -24.8953   -3.9644 C   0  0  0  0  0  0
    5.9996  -37.1685   -1.9220 H   0  0  0  0  0  0
  1  2  1  0  0  0
  1  3  1  0  0  0
  3  4  1  0  0  0
  4  5  1  0  0  0
  5  6  1  0  0  0
  6  7  2  0  0  0
  7  8  1  0  0  0
  7  9  1  0  0  0
  9 10  1  0  0  0
 10 11  2  0  0  0
 11 12  1  0  0  0
 11 13  1  0  0  0
 13 14  2  0  0  0
 14 15  1  0  0  0
 15 16  2  0  0  0
 16 17  1  0  0  0
 16 18  1  0  0  0
 18 19  2  0  0  0
  9 20  2  0  0  0
 20 21  1  0  0  0
 21 22  1  0  0  0
 22 23  2  0  0  0
 23 24  1  0  0  0
 24 25  2  0  0  0
  4 26  1  0  0  0
 26 27  1  0  0  0
 27 28  1  0  0  0
 28 29  1  0  0  0
 29 30  2  0  0  0
 29 31  1  0  0  0
 31 32  1  0  0  0
 32 33  1  0  0  0
 33 34  1  0  0  0
 34 35  1  0  0  0
 28  1  1  0  0  0
 35 31  1  0  0  0
 25  6  1  0  0  0
 19 13  1  0  0  0
 25 21  1  0  0  0
 12 36  1  0  0  0
M  END
>  <CHROM.0>
1.24538832,174.62604433,178.32324542,-110.96829376,11.09681337,66.23340133
-54.56470581

>  <CHROM.1>
116.89565730,-86.39669216,-167.77804654,179.74096737,176.98919564,66.59359468
8.44096318,-31.34117746,-3.12219050,-0.60761033,-1.00086162,-2.14963773

>  <Name>

>  <RI>
0

>  <Rbt.Current_Directory>
/extra/banzai2/j5wagner/CELPP/2016_10_17_rdock_implementation/normal_run/tutorialVideo/tutorial_rdock_implementation/full_week_run/4-docking/5m96/LMCSS_4wqp_docking

>  <Rbt.Executable>
rbdock ($Id: //depot/dev/client3/rdock/2013.1/src/exe/rbdock.cxx#4 $)

>  <Rbt.Library>
libRbt.so (2013.1, Build901 2013/11/27)

>  <Rbt.Parameter_File>
/home/j5wagner/env_00/source/rDock/rDock_2013.1_src//data/scripts/dock.prm

>  <Rbt.Receptor>
/extra/banzai2/j5wagner/CELPP/2016_10_17_rdock_implementation/normal_run/tutorialVideo/tutorial_rdock_implementation/full_week_run/4-docking/5m96/LMCSS_4wqp_tech_prep/rDockGridGenInput.prm

>  <SCORE>
-23.1923

>  <SCORE.INTER>
-14.7862

>  <SCORE.INTER.CONST>
1

>  <SCORE.INTER.POLAR>
0

>  <SCORE.INTER.REPUL>
0

>  <SCORE.INTER.ROT>
5

>  <SCORE.INTER.VDW>
-25.1862

>  <SCORE.INTER.norm>
-0.422464

>  <SCORE.INTRA>
-1.38572

>  <SCORE.INTRA.DIHEDRAL>
-5.77478

>  <SCORE.INTRA.DIHEDRAL.0>
9.74364

>  <SCORE.INTRA.POLAR>
0

>  <SCORE.INTRA.POLAR.0>
0

>  <SCORE.INTRA.REPUL>
-0.108387

>  <SCORE.INTRA.REPUL.0>
0.108387

>  <SCORE.INTRA.VDW>
2.0436

>  <SCORE.INTRA.VDW.0>
-2.87247

>  <SCORE.INTRA.norm>
-0.0395921

>  <SCORE.RESTR>
0

>  <SCORE.RESTR.CAVITY>
0

>  <SCORE.RESTR.norm>
0

>  <SCORE.SYSTEM>
-7.02033

>  <SCORE.SYSTEM.CONST>
0

>  <SCORE.SYSTEM.DIHEDRAL>
4.83816

>  <SCORE.SYSTEM.POLAR>
-2.75712

>  <SCORE.SYSTEM.VDW>
-0.0652113

>  <SCORE.SYSTEM.norm>
-0.200581

>  <SCORE.heavy>
35

>  <SCORE.norm>
-0.662637

$$$$

  rDOCK(R)          3D
libRbt.so/2013.1/901 2013/11/27
 36 40  0  0  0  0  0  0  0  0999 V2000
   11.7773  -28.3243   -1.5568 C   0  0  0  0  0  0
   10.8657  -27.6377   -0.5320 C   0  0  0  0  0  0
   10.9641  -28.9226   -2.7187 C   0  0  0  0  0  0
   10.4067  -27.8532   -3.5739 N   0  0  0  0  0  0
    9.5504  -28.4410   -4.6246 C   0  0  0  0  0  0
    8.6149  -29.4813   -4.0373 C   0  0  0  0  0  0
    8.3587  -30.7451   -4.6494 C   0  0  0  0  0  0
    9.0013  -31.0975   -5.9715 C   0  0  0  0  0  0
    7.5183  -31.6903   -3.9911 C   0  0  0  0  0  0
    7.2652  -32.9720   -4.5933 N   0  0  0  0  0  0
    6.7792  -34.0230   -3.9983 C   0  0  0  0  0  0
    6.5245  -33.9968   -2.6244 O   0  0  0  0  0  0
    6.5540  -35.2600   -4.7860 C   0  0  0  0  0  0
    6.8052  -35.3094   -6.1657 C   0  0  0  0  0  0
    6.5772  -36.4538   -6.8606 N   0  0  0  0  0  0
    6.1160  -37.5723   -6.2414 C   0  0  0  0  0  0
    5.8283  -38.8020   -7.0361 C   0  0  0  0  0  0
    5.8667  -37.5518   -4.9068 N   0  0  0  0  0  0
    6.0785  -36.4303   -4.1714 C   0  0  0  0  0  0
    6.8844  -31.3249   -2.7876 C   0  0  0  0  0  0
    7.1412  -30.1042   -2.2655 N   0  0  0  0  0  0
    6.6724  -29.5386   -1.1453 C   0  0  0  0  0  0
    7.2429  -28.2824   -1.0546 C   0  0  0  0  0  0
    8.0607  -28.0669   -2.1123 N   0  0  0  0  0  0
    7.9648  -29.2094   -2.8266 C   0  0  0  0  0  0
   11.5034  -27.0607   -4.1697 C   0  0  0  0  0  0
   12.3060  -26.3712   -3.0665 C   0  0  0  0  0  0
   12.7631  -27.3680   -2.0883 N   0  0  0  0  0  0
   14.1647  -27.4695   -1.7622 C   0  0  0  0  0  0
   15.0279  -27.2022   -2.6439 O   0  0  0  0  0  0
   14.6277  -27.8265   -0.3626 C   0  0  0  0  0  0
   16.1469  -28.0088   -0.3002 C   0  0  0  0  0  0
   16.7278  -26.7120    0.2658 C   0  0  0  0  0  0
   15.5524  -25.8222    0.6584 C   0  0  0  0  0  0
   14.3148  -26.7039    0.6222 C   0  0  0  0  0  0
    6.2398  -34.8179   -2.1069 H   0  0  0  0  0  0
  1  2  1  0  0  0
  1  3  1  0  0  0
  3  4  1  0  0  0
  4  5  1  0  0  0
  5  6  1  0  0  0
  6  7  2  0  0  0
  7  8  1  0  0  0
  7  9  1  0  0  0
  9 10  1  0  0  0
 10 11  2  0  0  0
 11 12  1  0  0  0
 11 13  1  0  0  0
 13 14  2  0  0  0
 14 15  1  0  0  0
 15 16  2  0  0  0
 16 17  1  0  0  0
 16 18  1  0  0  0
 18 19  2  0  0  0
  9 20  2  0  0  0
 20 21  1  0  0  0
 21 22  1  0  0  0
 22 23  2  0  0  0
 23 24  1  0  0  0
 24 25  2  0  0  0
  4 26  1  0  0  0
 26 27  1  0  0  0
 27 28  1  0  0  0
 28 29  1  0  0  0
 29 30  2  0  0  0
 29 31  1  0  0  0
 31 32  1  0  0  0
 32 33  1  0  0  0
 33 34  1  0  0  0
 34 35  1  0  0  0
 28  1  1  0  0  0
 35 31  1  0  0  0
 25  6  1  0  0  0
 19 13  1  0  0  0
 25 21  1  0  0  0
 12 36  1  0  0  0
M  END
>  <CHROM.0>
41.65066023,-49.33247237,-145.10081390,37.66636493,9.91264098,65.60708210
-52.55222259

>  <CHROM.1>
46.13152698,-136.48848214,163.80573221,-173.42592295,-2.40954191,174.32654893
9.73229560,-30.52944930,-3.06806225,0.90056039,-0.06400984,0.40050561

>  <Name>

>  <RI>
0

>  <Rbt.Current_Directory>
/extra/banzai2/j5wagner/CELPP/2016_10_17_rdock_implementation/normal_run/tutorialVideo/tutorial_rdock_implementation/full_week_run/4-docking/5m96/LMCSS_4wqp_docking

>  <Rbt.Executable>
rbdock ($Id: //depot/dev/client3/rdock/2013.1/src/exe/rbdock.cxx#4 $)

>  <Rbt.Library>
libRbt.so (2013.1, Build901 2013/11/27)

>  <Rbt.Parameter_File>
/home/j5wagner/env_00/source/rDock/rDock_2013.1_src//data/scripts/dock.prm

>  <Rbt.Receptor>
/extra/banzai2/j5wagner/CELPP/2016_10_17_rdock_implementation/normal_run/tutorialVideo/tutorial_rdock_implementation/full_week_run/4-docking/5m96/LMCSS_4wqp_tech_prep/rDockGridGenInput.prm

>  <SCORE>
-22.3928

>  <SCORE.INTER>
-15.2036

>  <SCORE.INTER.CONST>
1

>  <SCORE.INTER.POLAR>
0

>  <SCORE.INTER.REPUL>
0.330564

>  <SCORE.INTER.ROT>
5

>  <SCORE.INTER.VDW>
-27.2564

>  <SCORE.INTER.norm>
-0.434389

>  <SCORE.INTRA>
-0.638305

>  <SCORE.INTRA.DIHEDRAL>
-7.18171

>  <SCORE.INTRA.DIHEDRAL.0>
9.74364

>  <SCORE.INTRA.POLAR>
0

>  <SCORE.INTRA.POLAR.0>
0

>  <SCORE.INTRA.REPUL>
0.0600974

>  <SCORE.INTRA.REPUL.0>
0.108387

>  <SCORE.INTRA.VDW>
2.65206

>  <SCORE.INTRA.VDW.0>
-2.87247

>  <SCORE.INTRA.norm>
-0.0182373

>  <SCORE.RESTR>
0

>  <SCORE.RESTR.CAVITY>
0

>  <SCORE.RESTR.norm>
0

>  <SCORE.SYSTEM>
-6.55085

>  <SCORE.SYSTEM.CONST>
0

>  <SCORE.SYSTEM.DIHEDRAL>
6.58311

>  <SCORE.SYSTEM.POLAR>
-2.79475

>  <SCORE.SYSTEM.REPUL>
0.0379767

>  <SCORE.SYSTEM.VDW>
-0.530149

>  <SCORE.SYSTEM.norm>
-0.187167

>  <SCORE.heavy>
35

>  <SCORE.norm>
-0.639794

$$$$

  rDOCK(R)          3D
libRbt.so/2013.1/901 2013/11/27
 36 40  0  0  0  0  0  0  0  0999 V2000
   10.7483  -28.6922   -3.2574 C   0  0  0  0  0  0
   11.4604  -30.0441   -3.3919 C   0  0  0  0  0  0
    9.2212  -28.8681   -3.1787 C   0  0  0  0  0  0
    8.8290  -29.4737   -1.8882 N   0  0  0  0  0  0
    7.3732  -29.7248   -1.8694 C   0  0  0  0  0  0
    7.0814  -31.1752   -1.5327 C   0  0  0  0  0  0
    6.8347  -32.1781   -2.5181 C   0  0  0  0  0  0
    6.8169  -31.8183   -3.9861 C   0  0  0  0  0  0
    6.6379  -33.5312   -2.1136 C   0  0  0  0  0  0
    6.4025  -34.5514   -3.1000 N   0  0  0  0  0  0
    7.2326  -34.9379   -4.0254 C   0  0  0  0  0  0
    8.4619  -34.2913   -4.1802 O   0  0  0  0  0  0
    6.8324  -36.0319   -4.9443 C   0  0  0  0  0  0
    6.2675  -37.2243   -4.4664 C   0  0  0  0  0  0
    5.9230  -38.2118   -5.3326 N   0  0  0  0  0  0
    6.1037  -38.0669   -6.6718 C   0  0  0  0  0  0
    5.7613  -39.1858   -7.5978 C   0  0  0  0  0  0
    6.6465  -36.9222   -7.1605 N   0  0  0  0  0  0
    7.0074  -35.9085   -6.3326 C   0  0  0  0  0  0
    6.6032  -33.8394   -0.7397 C   0  0  0  0  0  0
    6.8159  -32.8455    0.1522 N   0  0  0  0  0  0
    6.8391  -32.8898    1.4909 C   0  0  0  0  0  0
    7.1026  -31.6074    1.9356 C   0  0  0  0  0  0
    7.2414  -30.7698    0.8804 N   0  0  0  0  0  0
    7.0561  -31.5730   -0.1898 C   0  0  0  0  0  0
    9.2256  -28.5871   -0.7737 C   0  0  0  0  0  0
   10.7463  -28.4340   -0.7462 C   0  0  0  0  0  0
   11.2233  -27.9792   -2.0596 N   0  0  0  0  0  0
   12.0359  -26.7916   -2.1609 C   0  0  0  0  0  0
   11.8634  -25.8496   -1.3383 O   0  0  0  0  0  0
   13.1407  -26.6744   -3.1936 C   0  0  0  0  0  0
   13.9740  -25.4064   -2.9870 C   0  0  0  0  0  0
   15.2476  -25.8258   -2.2513 C   0  0  0  0  0  0
   15.2279  -27.3474   -2.1424 C   0  0  0  0  0  0
   14.1287  -27.8309   -3.0741 C   0  0  0  0  0  0
    8.7794  -33.5659   -3.5509 H   0  0  0  0  0  0
  1  2  1  0  0  0
  1  3  1  0  0  0
  3  4  1  0  0  0
  4  5  1  0  0  0
  5  6  1  0  0  0
  6  7  2  0  0  0
  7  8  1  0  0  0
  7  9  1  0  0  0
  9 10  1  0  0  0
 10 11  2  0  0  0
 11 12  1  0  0  0
 11 13  1  0  0  0
 13 14  2  0  0  0
 14 15  1  0  0  0
 15 16  2  0  0  0
 16 17  1  0  0  0
 16 18  1  0  0  0
 18 19  2  0  0  0
  9 20  2  0  0  0
 20 21  1  0  0  0
 21 22  1  0  0  0
 22 23  2  0  0  0
 23 24  1  0  0  0
 24 25  2  0  0  0
  4 26  1  0  0  0
 26 27  1  0  0  0
 27 28  1  0  0  0
 28 29  1  0  0  0
 29 30  2  0  0  0
 29 31  1  0  0  0
 31 32  1  0  0  0
 32 33  1  0  0  0
 33 34  1  0  0  0
 34 35  1  0  0  0
 28  1  1  0  0  0
 35 31  1  0  0  0
 25  6  1  0  0  0
 19 13  1  0  0  0
 25 21  1  0  0  0
 12 36  1  0  0  0
M  END
>  <CHROM.0>
24.69925499,63.52397671,-168.85077199,27.53282456,10.26314911,66.20524587
-52.84541185

>  <CHROM.1>
125.87717653,-96.26705639,63.98956077,4.87083315,-47.56401943,-172.61956934
8.92206893,-31.51681826,-2.72246837,-0.77535435,-0.71950759,-2.25505424

>  <Name>

>  <RI>
0

>  <Rbt.Current_Directory>
/extra/banzai2/j5wagner/CELPP/2016_10_17_rdock_implementation/normal_run/tutorialVideo/tutorial_rdock_implementation/full_week_run/4-docking/5m96/LMCSS_4wqp_docking

>  <Rbt.Executable>
rbdock ($Id: //depot/dev/client3/rdock/2013.1/src/exe/rbdock.cxx#4 $)

>  <Rbt.Library>
libRbt.so (2013.1, Build901 2013/11/27)

>  <Rbt.Parameter_File>
/home/j5wagner/env_00/source/rDock/rDock_2013.1_src//data/scripts/dock.prm

>  <Rbt.Receptor>
/extra/banzai2/j5wagner/CELPP/2016_10_17_rdock_implementation/normal_run/tutorialVideo/tutorial_rdock_implementation/full_week_run/4-docking/5m96/LMCSS_4wqp_tech_prep/rDockGridGenInput.prm

>  <SCORE>
-22.1175

>  <SCORE.INTER>
-14.2237

>  <SCORE.INTER.CONST>
1

>  <SCORE.INTER.POLAR>
0

>  <SCORE.INTER.REPUL>
0

>  <SCORE.INTER.ROT>
5

>  <SCORE.INTER.VDW>
-24.6237

>  <SCORE.INTER.norm>
-0.40639

>  <SCORE.INTRA>
2.79684

>  <SCORE.INTRA.DIHEDRAL>
5.70657

>  <SCORE.INTRA.DIHEDRAL.0>
9.74364

>  <SCORE.INTRA.POLAR>
0

>  <SCORE.INTRA.POLAR.0>
0

>  <SCORE.INTRA.REPUL>
-0.108387

>  <SCORE.INTRA.REPUL.0>
0.108387

>  <SCORE.INTRA.VDW>
0.485488

>  <SCORE.INTRA.VDW.0>
-2.87247

>  <SCORE.INTRA.norm>
0.0799096

>  <SCORE.RESTR>
0

>  <SCORE.RESTR.CAVITY>
0

>  <SCORE.RESTR.norm>
0

>  <SCORE.SYSTEM>
-10.6907

>  <SCORE.SYSTEM.CONST>
0

>  <SCORE.SYSTEM.DIHEDRAL>
2.68773

>  <SCORE.SYSTEM.POLAR>
-3.44109

>  <SCORE.SYSTEM.VDW>
-0.334876

>  <SCORE.SYSTEM.norm>
-0.305449

>  <SCORE.heavy>
35

>  <SCORE.norm>
-0.631929

$$$$

  rDOCK(R)          3D
libRbt.so/2013.1/901 2013/11/27
 36 40  0  0  0  0  0  0  0  0999 V2000
   11.4677  -28.7628   -3.1449 C   0  0  0  0  0  0
   12.1674  -30.1266   -3.1991 C   0  0  0  0  0  0
    9.9392  -28.9122   -3.2480 C   0  0  0  0  0  0
    9.3867  -29.5131   -2.0154 N   0  0  0  0  0  0
    7.9348  -29.7388   -2.1699 C   0  0  0  0  0  0
    7.5685  -31.1628   -1.7955 C   0  0  0  0  0  0
    7.3935  -32.2083   -2.7515 C   0  0  0  0  0  0
    7.5343  -31.9231   -4.2293 C   0  0  0  0  0  0
    7.1177  -33.5339   -2.3047 C   0  0  0  0  0  0
    6.9535  -34.5970   -3.2598 N   0  0  0  0  0  0
    6.0329  -34.6766   -4.1769 C   0  0  0  0  0  0
    5.0297  -33.7064   -4.2505 O   0  0  0  0  0  0
    6.0325  -35.8369   -5.1017 C   0  0  0  0  0  0
    6.8022  -36.9819   -4.8456 C   0  0  0  0  0  0
    6.7894  -38.0224   -5.7183 N   0  0  0  0  0  0
    6.0293  -37.9862   -6.8444 C   0  0  0  0  0  0
    6.0702  -39.1224   -7.8108 C   0  0  0  0  0  0
    5.2737  -36.8909   -7.1147 N   0  0  0  0  0  0
    5.2558  -35.8264   -6.2721 C   0  0  0  0  0  0
    6.9356  -33.7710   -0.9283 C   0  0  0  0  0  0
    7.0860  -32.7385   -0.0681 N   0  0  0  0  0  0
    6.9727  -32.7153    1.2665 C   0  0  0  0  0  0
    7.2272  -31.4187    1.6736 C   0  0  0  0  0  0
    7.4960  -30.6393    0.5991 N   0  0  0  0  0  0
    7.3963  -31.4912   -0.4446 C   0  0  0  0  0  0
    9.6636  -28.6354   -0.8584 C   0  0  0  0  0  0
   11.1727  -28.5089   -0.6505 C   0  0  0  0  0  0
   11.8096  -28.0603   -1.8965 N   0  0  0  0  0  0
   12.6487  -26.8867   -1.8965 C   0  0  0  0  0  0
   12.3961  -25.9433   -1.0966 O   0  0  0  0  0  0
   13.8698  -26.7871   -2.7908 C   0  0  0  0  0  0
   14.6136  -25.4645   -2.5847 C   0  0  0  0  0  0
   15.8003  -25.7597   -1.6661 C   0  0  0  0  0  0
   15.8336  -27.2681   -1.4393 C   0  0  0  0  0  0
   14.8843  -27.8771   -2.4581 C   0  0  0  0  0  0
    4.2915  -33.7367   -4.9413 H   0  0  0  0  0  0
  1  2  1  0  0  0
  1  3  1  0  0  0
  3  4  1  0  0  0
  4  5  1  0  0  0
  5  6  1  0  0  0
  6  7  2  0  0  0
  7  8  1  0  0  0
  7  9  1  0  0  0
  9 10  1  0  0  0
 10 11  2  0  0  0
 11 12  1  0  0  0
 11 13  1  0  0  0
 13 14  2  0  0  0
 14 15  1  0  0  0
 15 16  2  0  0  0
 16 17  1  0  0  0
 16 18  1  0  0  0
 18 19  2  0  0  0
  9 20  2  0  0  0
 20 21  1  0  0  0
 21 22  1  0  0  0
 22 23  2  0  0  0
 23 24  1  0  0  0
 24 25  2  0  0  0
  4 26  1  0  0  0
 26 27  1  0  0  0
 27 28  1  0  0  0
 28 29  1  0  0  0
 29 30  2  0  0  0
 29 31  1  0  0  0
 31 32  1  0  0  0
 32 33  1  0  0  0
 33 34  1  0  0  0
 34 35  1  0  0  0
 28  1  1  0  0  0
 35 31  1  0  0  0
 25  6  1  0  0  0
 19 13  1  0  0  0
 25 21  1  0  0  0
 12 36  1  0  0  0
M  END
>  <CHROM.0>
-6.74935038,60.47949374,172.32300605,-120.32617301,8.92371133,64.61749429
54.71257064

>  <CHROM.1>
129.26264839,-97.86312724,-62.22383894,-179.36662496,13.93729999,-178.57351490
9.09152624,-31.47171758,-2.74133198,-0.73529737,-0.63296465,-2.20578847

>  <Name>

>  <RI>
0

>  <Rbt.Current_Directory>
/extra/banzai2/j5wagner/CELPP/2016_10_17_rdock_implementation/normal_run/tutorialVideo/tutorial_rdock_implementation/full_week_run/4-docking/5m96/LMCSS_4wqp_docking

>  <Rbt.Executable>
rbdock ($Id: //depot/dev/client3/rdock/2013.1/src/exe/rbdock.cxx#4 $)

>  <Rbt.Library>
libRbt.so (2013.1, Build901 2013/11/27)

>  <Rbt.Parameter_File>
/home/j5wagner/env_00/source/rDock/rDock_2013.1_src//data/scripts/dock.prm

>  <Rbt.Receptor>
/extra/banzai2/j5wagner/CELPP/2016_10_17_rdock_implementation/normal_run/tutorialVideo/tutorial_rdock_implementation/full_week_run/4-docking/5m96/LMCSS_4wqp_tech_prep/rDockGridGenInput.prm

>  <SCORE>
-22.531

>  <SCORE.INTER>
-15.4206

>  <SCORE.INTER.CONST>
1

>  <SCORE.INTER.POLAR>
0

>  <SCORE.INTER.REPUL>
0.00594256

>  <SCORE.INTER.ROT>
5

>  <SCORE.INTER.VDW>
-25.8503

>  <SCORE.INTER.norm>
-0.440589

>  <SCORE.INTRA>
-0.255063

>  <SCORE.INTRA.DIHEDRAL>
-0.144494

>  <SCORE.INTRA.DIHEDRAL.0>
9.74364

>  <SCORE.INTRA.POLAR>
0

>  <SCORE.INTRA.POLAR.0>
0

>  <SCORE.INTRA.REPUL>
-0.108387

>  <SCORE.INTRA.REPUL.0>
0.108387

>  <SCORE.INTRA.VDW>
0.35912

>  <SCORE.INTRA.VDW.0>
-2.87247

>  <SCORE.INTRA.norm>
-0.00728752

>  <SCORE.RESTR>
0

>  <SCORE.RESTR.CAVITY>
0

>  <SCORE.RESTR.norm>
0

>  <SCORE.SYSTEM>
-6.85534

>  <SCORE.SYSTEM.CONST>
0

>  <SCORE.SYSTEM.DIHEDRAL>
4.06148

>  <SCORE.SYSTEM.POLAR>
-2.35175

>  <SCORE.SYSTEM.REPUL>
0.0086091

>  <SCORE.SYSTEM.VDW>
-0.933168

>  <SCORE.SYSTEM.norm>
-0.195867

>  <SCORE.heavy>
35

>  <SCORE.norm>
-0.643743

$$$$

  rDOCK(R)          3D
libRbt.so/2013.1/901 2013/11/27
 36 40  0  0  0  0  0  0  0  0999 V2000
    8.4456  -31.0951   -3.7217 C   0  0  0  0  0  0
    8.2527  -30.0889   -4.8630 C   0  0  0  0  0  0
    9.5902  -30.6684   -2.7852 C   0  0  0  0  0  0
    9.2048  -29.4807   -1.9935 N   0  0  0  0  0  0
   10.3471  -29.0272   -1.1737 C   0  0  0  0  0  0
   11.4643  -28.4975   -2.0532 C   0  0  0  0  0  0
   11.2447  -27.6487   -3.1796 C   0  0  0  0  0  0
    9.8401  -27.2583   -3.5792 C   0  0  0  0  0  0
   12.3601  -27.1414   -3.9087 C   0  0  0  0  0  0
   12.1495  -26.2740   -5.0369 N   0  0  0  0  0  0
   12.6189  -25.0685   -5.1831 C   0  0  0  0  0  0
   13.3449  -24.4680   -4.1509 O   0  0  0  0  0  0
   12.3249  -24.3252   -6.4331 C   0  0  0  0  0  0
   12.4721  -22.9319   -6.5123 C   0  0  0  0  0  0
   12.1830  -22.2794   -7.6677 N   0  0  0  0  0  0
   11.7595  -22.9539   -8.7690 C   0  0  0  0  0  0
   11.4026  -22.2081  -10.0112 C   0  0  0  0  0  0
   11.6106  -24.3027   -8.7196 N   0  0  0  0  0  0
   11.8864  -24.9972   -7.5861 C   0  0  0  0  0  0
   13.6584  -27.5589   -3.5567 C   0  0  0  0  0  0
   13.8073  -28.3860   -2.4973 N   0  0  0  0  0  0
   14.9235  -28.9076   -1.9713 C   0  0  0  0  0  0
   14.5405  -29.6849   -0.8939 C   0  0  0  0  0  0
   13.1943  -29.6484   -0.7508 N   0  0  0  0  0  0
   12.7893  -28.8418   -1.7560 C   0  0  0  0  0  0
    8.0384  -29.7986   -1.1426 C   0  0  0  0  0  0
    6.8371  -30.1551   -2.0181 C   0  0  0  0  0  0
    7.2019  -31.2350   -2.9455 N   0  0  0  0  0  0
    6.4160  -32.4439   -2.9908 C   0  0  0  0  0  0
    5.8521  -32.8572   -1.9396 O   0  0  0  0  0  0
    6.1959  -33.1965   -4.2892 C   0  0  0  0  0  0
    7.4989  -33.8028   -4.8178 C   0  0  0  0  0  0
    7.4953  -35.2801   -4.4216 C   0  0  0  0  0  0
    6.1422  -35.5742   -3.7812 C   0  0  0  0  0  0
    5.2537  -34.3791   -4.0854 C   0  0  0  0  0  0
   13.5733  -24.9512   -3.2922 H   0  0  0  0  0  0
  1  2  1  0  0  0
  1  3  1  0  0  0
  3  4  1  0  0  0
  4  5  1  0  0  0
  5  6  1  0  0  0
  6  7  2  0  0  0
  7  8  1  0  0  0
  7  9  1  0  0  0
  9 10  1  0  0  0
 10 11  2  0  0  0
 11 12  1  0  0  0
 11 13  1  0  0  0
 13 14  2  0  0  0
 14 15  1  0  0  0
 15 16  2  0  0  0
 16 17  1  0  0  0
 16 18  1  0  0  0
 18 19  2  0  0  0
  9 20  2  0  0  0
 20 21  1  0  0  0
 21 22  1  0  0  0
 22 23  2  0  0  0
 23 24  1  0  0  0
 24 25  2  0  0  0
  4 26  1  0  0  0
 26 27  1  0  0  0
 27 28  1  0  0  0
 28 29  1  0  0  0
 29 30  2  0  0  0
 29 31  1  0  0  0
 31 32  1  0  0  0
 32 33  1  0  0  0
 33 34  1  0  0  0
 34 35  1  0  0  0
 28  1  1  0  0  0
 35 31  1  0  0  0
 25  6  1  0  0  0
 19 13  1  0  0  0
 25 21  1  0  0  0
 12 36  1  0  0  0
M  END
>  <CHROM.0>
2.84993440,-47.87416912,-4.43498412,-125.08633483,8.38418252,-177.66181495
54.84738700

>  <CHROM.1>
66.99669327,43.02258596,122.23871703,3.43416998,162.21026170,66.74496848
10.29469627,-28.67735253,-4.02839782,2.23186244,0.61802837,2.34994748

>  <Name>

>  <RI>
0

>  <Rbt.Current_Directory>
/extra/banzai2/j5wagner/CELPP/2016_10_17_rdock_implementation/normal_run/tutorialVideo/tutorial_rdock_implementation/full_week_run/4-docking/5m96/LMCSS_4wqp_docking

>  <Rbt.Executable>
rbdock ($Id: //depot/dev/client3/rdock/2013.1/src/exe/rbdock.cxx#4 $)

>  <Rbt.Library>
libRbt.so (2013.1, Build901 2013/11/27)

>  <Rbt.Parameter_File>
/home/j5wagner/env_00/source/rDock/rDock_2013.1_src//data/scripts/dock.prm

>  <Rbt.Receptor>
/extra/banzai2/j5wagner/CELPP/2016_10_17_rdock_implementation/normal_run/tutorialVideo/tutorial_rdock_implementation/full_week_run/4-docking/5m96/LMCSS_4wqp_tech_prep/rDockGridGenInput.prm

>  <SCORE>
-18.4868

>  <SCORE.INTER>
-18.0887

>  <SCORE.INTER.CONST>
1

>  <SCORE.INTER.POLAR>
0

>  <SCORE.INTER.REPUL>
0.0137959

>  <SCORE.INTER.ROT>
5

>  <SCORE.INTER.VDW>
-28.5577

>  <SCORE.INTER.norm>
-0.516821

>  <SCORE.INTRA>
0.363741

>  <SCORE.INTRA.DIHEDRAL>
-2.48689

>  <SCORE.INTRA.DIHEDRAL.0>
9.74364

>  <SCORE.INTRA.POLAR>
0

>  <SCORE.INTRA.POLAR.0>
0

>  <SCORE.INTRA.REPUL>
-0.108387

>  <SCORE.INTRA.REPUL.0>
0.108387

>  <SCORE.INTRA.VDW>
2.14912

>  <SCORE.INTRA.VDW.0>
-2.87247

>  <SCORE.INTRA.norm>
0.0103926

>  <SCORE.RESTR>
0.599842

>  <SCORE.RESTR.CAVITY>
0.599842

>  <SCORE.RESTR.norm>
0.0171383

>  <SCORE.SYSTEM>
-1.3616

>  <SCORE.SYSTEM.CONST>
0

>  <SCORE.SYSTEM.DIHEDRAL>
4.18625

>  <SCORE.SYSTEM.POLAR>
-1.01031

>  <SCORE.SYSTEM.REPUL>
0.0272443

>  <SCORE.SYSTEM.VDW>
-0.155903

>  <SCORE.SYSTEM.norm>
-0.0389028

>  <SCORE.heavy>
35

>  <SCORE.norm>
-0.528193

$$$$

  rDOCK(R)          3D
libRbt.so/2013.1/901 2013/11/27
 36 40  0  0  0  0  0  0  0  0999 V2000
    6.4871  -33.8051   -4.5692 C   0  0  0  0  0  0
    5.4051  -33.0659   -3.7722 C   0  0  0  0  0  0
    7.8026  -33.0066   -4.6031 C   0  0  0  0  0  0
    8.4476  -33.0017   -3.2728 N   0  0  0  0  0  0
    9.6553  -32.1513   -3.2997 C   0  0  0  0  0  0
    9.2838  -30.6847   -3.1844 C   0  0  0  0  0  0
    9.9495  -29.6450   -3.9009 C   0  0  0  0  0  0
   11.1156  -29.9677   -4.8070 C   0  0  0  0  0  0
    9.4879  -28.3010   -3.7848 C   0  0  0  0  0  0
   10.1435  -27.2482   -4.5138 N   0  0  0  0  0  0
    9.9228  -25.9709   -4.3926 C   0  0  0  0  0  0
    8.9127  -25.5105   -3.5435 O   0  0  0  0  0  0
   10.7178  -25.0196   -5.2079 C   0  0  0  0  0  0
   11.6739  -25.4647   -6.1335 C   0  0  0  0  0  0
   12.3940  -24.5680   -6.8558 N   0  0  0  0  0  0
   12.2004  -23.2306   -6.7105 C   0  0  0  0  0  0
   13.0382  -22.2658   -7.4811 C   0  0  0  0  0  0
   11.2799  -22.7736   -5.8230 N   0  0  0  0  0  0
   10.5376  -23.6326   -5.0783 C   0  0  0  0  0  0
    8.4359  -28.0103   -2.8945 C   0  0  0  0  0  0
    7.8586  -29.0301   -2.2197 N   0  0  0  0  0  0
    6.8520  -29.0081   -1.3361 C   0  0  0  0  0  0
    6.6323  -30.3137   -0.9375 C   0  0  0  0  0  0
    7.4976  -31.1431   -1.5681 N   0  0  0  0  0  0
    8.2291  -30.3115   -2.3414 C   0  0  0  0  0  0
    8.7847  -34.3839   -2.8707 C   0  0  0  0  0  0
    7.5078  -35.2140   -2.7399 C   0  0  0  0  0  0
    6.7345  -35.1350   -3.9869 N   0  0  0  0  0  0
    6.3419  -36.3431   -4.6707 C   0  0  0  0  0  0
    7.0854  -37.3615   -4.6074 O   0  0  0  0  0  0
    5.0216  -36.4400   -5.4110 C   0  0  0  0  0  0
    5.1559  -35.9832   -6.8664 C   0  0  0  0  0  0
    5.2744  -37.2466   -7.7202 C   0  0  0  0  0  0
    5.0780  -38.4412   -6.7918 C   0  0  0  0  0  0
    4.5381  -37.8853   -5.4842 C   0  0  0  0  0  0
    8.7247  -24.5267   -3.4032 H   0  0  0  0  0  0
  1  2  1  0  0  0
  1  3  1  0  0  0
  3  4  1  0  0  0
  4  5  1  0  0  0
  5  6  1  0  0  0
  6  7  2  0  0  0
  7  8  1  0  0  0
  7  9  1  0  0  0
  9 10  1  0  0  0
 10 11  2  0  0  0
 11 12  1  0  0  0
 11 13  1  0  0  0
 13 14  2  0  0  0
 14 15  1  0  0  0
 15 16  2  0  0  0
 16 17  1  0  0  0
 16 18  1  0  0  0
 18 19  2  0  0  0
  9 20  2  0  0  0
 20 21  1  0  0  0
 21 22  1  0  0  0
 22 23  2  0  0  0
 23 24  1  0  0  0
 24 25  2  0  0  0
  4 26  1  0  0  0
 26 27  1  0  0  0
 27 28  1  0  0  0
 28 29  1  0  0  0
 29 30  2  0  0  0
 29 31  1  0  0  0
 31 32  1  0  0  0
 32 33  1  0  0  0
 33 34  1  0  0  0
 34 35  1  0  0  0
 28  1  1  0  0  0
 35 31  1  0  0  0
 25  6  1  0  0  0
 19 13  1  0  0  0
 25 21  1  0  0  0
 12 36  1  0  0  0
M  END
>  <CHROM.0>
99.68181231,60.66176475,-168.15004934,1.32264573,10.56713348,64.91598657
-54.51668873

>  <CHROM.1>
79.72537337,-141.93424090,-172.12182884,178.40386030,1.86799012,88.88903958
8.41893278,-30.67817925,-4.39677247,-2.65406090,1.09858833,1.00005743

>  <Name>

>  <RI>
0

>  <Rbt.Current_Directory>
/extra/banzai2/j5wagner/CELPP/2016_10_17_rdock_implementation/normal_run/tutorialVideo/tutorial_rdock_implementation/full_week_run/4-docking/5m96/LMCSS_4wqp_docking

>  <Rbt.Executable>
rbdock ($Id: //depot/dev/client3/rdock/2013.1/src/exe/rbdock.cxx#4 $)

>  <Rbt.Library>
libRbt.so (2013.1, Build901 2013/11/27)

>  <Rbt.Parameter_File>
/home/j5wagner/env_00/source/rDock/rDock_2013.1_src//data/scripts/dock.prm

>  <Rbt.Receptor>
/extra/banzai2/j5wagner/CELPP/2016_10_17_rdock_implementation/normal_run/tutorialVideo/tutorial_rdock_implementation/full_week_run/4-docking/5m96/LMCSS_4wqp_tech_prep/rDockGridGenInput.prm

>  <SCORE>
-29.4737

>  <SCORE.INTER>
-19.6242

>  <SCORE.INTER.CONST>
1

>  <SCORE.INTER.POLAR>
0

>  <SCORE.INTER.REPUL>
0.00640506

>  <SCORE.INTER.ROT>
5

>  <SCORE.INTER.VDW>
-30.0562

>  <SCORE.INTER.norm>
-0.560691

>  <SCORE.INTRA>
-0.420514

>  <SCORE.INTRA.DIHEDRAL>
-6.38461

>  <SCORE.INTRA.DIHEDRAL.0>
9.74364

>  <SCORE.INTRA.POLAR>
0

>  <SCORE.INTRA.POLAR.0>
0

>  <SCORE.INTRA.REPUL>
0.265948

>  <SCORE.INTRA.REPUL.0>
0.108387

>  <SCORE.INTRA.VDW>
1.44205

>  <SCORE.INTRA.VDW.0>
-2.87247

>  <SCORE.INTRA.norm>
-0.0120147

>  <SCORE.RESTR>
0

>  <SCORE.RESTR.CAVITY>
0

>  <SCORE.RESTR.norm>
0

>  <SCORE.SYSTEM>
-9.42905

>  <SCORE.SYSTEM.CONST>
0

>  <SCORE.SYSTEM.DIHEDRAL>
5.33473

>  <SCORE.SYSTEM.POLAR>
-3.44158

>  <SCORE.SYSTEM.VDW>
-0.395039

>  <SCORE.SYSTEM.norm>
-0.269401

>  <SCORE.heavy>
35

>  <SCORE.norm>
-0.842107

$$$$

  rDOCK(R)          3D
libRbt.so/2013.1/901 2013/11/27
 36 40  0  0  0  0  0  0  0  0999 V2000
   11.4182  -25.6159   -4.1599 C   0  0  0  0  0  0
   11.5848  -25.4006   -2.6505 C   0  0  0  0  0  0
   11.3834  -27.1138   -4.5124 C   0  0  0  0  0  0
   10.1261  -27.7339   -4.0428 N   0  0  0  0  0  0
   10.1522  -29.1882   -4.3019 C   0  0  0  0  0  0
    8.8865  -29.8492   -3.7890 C   0  0  0  0  0  0
    8.3447  -31.0484   -4.3420 C   0  0  0  0  0  0
    9.0109  -31.7127   -5.5251 C   0  0  0  0  0  0
    7.1884  -31.6379   -3.7515 C   0  0  0  0  0  0
    6.6431  -32.8541   -4.2930 N   0  0  0  0  0  0
    6.7534  -34.0458   -3.7807 C   0  0  0  0  0  0
    7.5252  -34.2478   -2.6332 O   0  0  0  0  0  0
    6.0972  -35.1889   -4.4620 C   0  0  0  0  0  0
    6.0785  -36.4717   -3.8935 C   0  0  0  0  0  0
    5.4799  -37.4999   -4.5483 N   0  0  0  0  0  0
    4.8796  -37.3119   -5.7531 C   0  0  0  0  0  0
    4.2712  -38.4682   -6.4738 C   0  0  0  0  0  0
    4.8818  -36.0799   -6.3242 N   0  0  0  0  0  0
    5.4688  -35.0225   -5.7073 C   0  0  0  0  0  0
    6.5488  -30.9769   -2.6849 C   0  0  0  0  0  0
    7.0893  -29.8288   -2.2176 N   0  0  0  0  0  0
    6.6756  -29.0331   -1.2225 C   0  0  0  0  0  0
    7.5766  -27.9879   -1.1364 C   0  0  0  0  0  0
    8.5445  -28.1314   -2.0727 N   0  0  0  0  0  0
    8.2029  -29.2718   -2.7111 C   0  0  0  0  0  0
    8.9704  -27.0998   -4.7119 C   0  0  0  0  0  0
    8.9000  -25.6194   -4.3374 C   0  0  0  0  0  0
   10.1837  -24.9700   -4.6369 N   0  0  0  0  0  0
   10.2213  -23.7994   -5.4793 C   0  0  0  0  0  0
    9.3691  -23.6711   -6.4018 O   0  0  0  0  0  0
   11.2216  -22.6845   -5.2404 C   0  0  0  0  0  0
   11.2691  -21.7072   -6.4184 C   0  0  0  0  0  0
   10.4226  -20.4954   -6.0257 C   0  0  0  0  0  0
    9.9883  -20.6962   -4.5770 C   0  0  0  0  0  0
   10.8258  -21.8415   -4.0319 C   0  0  0  0  0  0
    7.6527  -35.1602   -2.2156 H   0  0  0  0  0  0
  1  2  1  0  0  0
  1  3  1  0  0  0
  3  4  1  0  0  0
  4  5  1  0  0  0
  5  6  1  0  0  0
  6  7  2  0  0  0
  7  8  1  0  0  0
  7  9  1  0  0  0
  9 10  1  0  0  0
 10 11  2  0  0  0
 11 12  1  0  0  0
 11 13  1  0  0  0
 13 14  2  0  0  0
 14 15  1  0  0  0
 15 16  2  0  0  0
 16 17  1  0  0  0
 16 18  1  0  0  0
 18 19  2  0  0  0
  9 20  2  0  0  0
 20 21  1  0  0  0
 21 22  1  0  0  0
 22 23  2  0  0  0
 23 24  1  0  0  0
 24 25  2  0  0  0
  4 26  1  0  0  0
 26 27  1  0  0  0
 27 28  1  0  0  0
 28 29  1  0  0  0
 29 30  2  0  0  0
 29 31  1  0  0  0
 31 32  1  0  0  0
 32 33  1  0  0  0
 33 34  1  0  0  0
 34 35  1  0  0  0
 28  1  1  0  0  0
 35 31  1  0  0  0
 25  6  1  0  0  0
 19 13  1  0  0  0
 25 21  1  0  0  0
 12 36  1  0  0  0
M  END
>  <CHROM.0>
168.64344874,61.52881663,-155.62866605,-119.28389637,8.82996753,-177.32899115
-52.22516443

>  <CHROM.1>
178.31659781,152.62835861,104.57667406,-178.64875426,-174.09200222,167.93413920
8.38094378,-29.20917949,-4.26674732,-0.00196065,1.20962388,1.56556965

>  <Name>

>  <RI>
0

>  <Rbt.Current_Directory>
/extra/banzai2/j5wagner/CELPP/2016_10_17_rdock_implementation/normal_run/tutorialVideo/tutorial_rdock_implementation/full_week_run/4-docking/5m96/LMCSS_4wqp_docking

>  <Rbt.Executable>
rbdock ($Id: //depot/dev/client3/rdock/2013.1/src/exe/rbdock.cxx#4 $)

>  <Rbt.Library>
libRbt.so (2013.1, Build901 2013/11/27)

>  <Rbt.Parameter_File>
/home/j5wagner/env_00/source/rDock/rDock_2013.1_src//data/scripts/dock.prm

>  <Rbt.Receptor>
/extra/banzai2/j5wagner/CELPP/2016_10_17_rdock_implementation/normal_run/tutorialVideo/tutorial_rdock_implementation/full_week_run/4-docking/5m96/LMCSS_4wqp_tech_prep/rDockGridGenInput.prm

>  <SCORE>
-16.5449

>  <SCORE.INTER>
-14.1869

>  <SCORE.INTER.CONST>
1

>  <SCORE.INTER.POLAR>
0

>  <SCORE.INTER.REPUL>
0.0116927

>  <SCORE.INTER.ROT>
5

>  <SCORE.INTER.VDW>
-24.6454

>  <SCORE.INTER.norm>
-0.40534

>  <SCORE.INTRA>
2.07851

>  <SCORE.INTRA.DIHEDRAL>
-1.64365

>  <SCORE.INTRA.DIHEDRAL.0>
9.74364

>  <SCORE.INTRA.POLAR>
0

>  <SCORE.INTRA.POLAR.0>
0

>  <SCORE.INTRA.REPUL>
0.280467

>  <SCORE.INTRA.REPUL.0>
0.108387

>  <SCORE.INTRA.VDW>
1.49801

>  <SCORE.INTRA.VDW.0>
-2.87247

>  <SCORE.INTRA.norm>
0.0593861

>  <SCORE.RESTR>
0.0047946

>  <SCORE.RESTR.CAVITY>
0.0047946

>  <SCORE.RESTR.norm>
0.000136988

>  <SCORE.SYSTEM>
-4.44126

>  <SCORE.SYSTEM.CONST>
0

>  <SCORE.SYSTEM.DIHEDRAL>
5.08924

>  <SCORE.SYSTEM.POLAR>
-2.6924

>  <SCORE.SYSTEM.VDW>
2.16828

>  <SCORE.SYSTEM.norm>
-0.126893

>  <SCORE.heavy>
35

>  <SCORE.norm>
-0.47271

$$$$

  rDOCK(R)          3D
libRbt.so/2013.1/901 2013/11/27
 36 40  0  0  0  0  0  0  0  0999 V2000
    6.5448  -33.5967   -4.5797 C   0  0  0  0  0  0
    5.4757  -32.9376   -3.6993 C   0  0  0  0  0  0
    7.8463  -32.7751   -4.5914 C   0  0  0  0  0  0
    8.5304  -32.8578   -3.2833 N   0  0  0  0  0  0
    9.7238  -31.9869   -3.2809 C   0  0  0  0  0  0
    9.3246  -30.5269   -3.1743 C   0  0  0  0  0  0
    9.9931  -29.4749   -3.8700 C   0  0  0  0  0  0
   11.1899  -29.7764   -4.7427 C   0  0  0  0  0  0
    9.5059  -28.1390   -3.7652 C   0  0  0  0  0  0
   10.1644  -27.0740   -4.4736 N   0  0  0  0  0  0
   10.5840  -25.9514   -3.9653 C   0  0  0  0  0  0
   10.3385  -25.6539   -2.6220 O   0  0  0  0  0  0
   11.2735  -24.9737   -4.8428 C   0  0  0  0  0  0
   11.7424  -23.7462   -4.3505 C   0  0  0  0  0  0
   12.3588  -22.8675   -5.1825 N   0  0  0  0  0  0
   12.5457  -23.1568   -6.4972 C   0  0  0  0  0  0
   13.1827  -22.1541   -7.4002 C   0  0  0  0  0  0
   12.1031  -24.3386   -6.9986 N   0  0  0  0  0  0
   11.4804  -25.2474   -6.2050 C   0  0  0  0  0  0
    8.4241  -27.8677   -2.9051 C   0  0  0  0  0  0
    7.8449  -28.8982   -2.2486 N   0  0  0  0  0  0
    6.8131  -28.8947   -1.3942 C   0  0  0  0  0  0
    6.6040  -30.2045   -1.0039 C   0  0  0  0  0  0
    7.5007  -31.0182   -1.6105 N   0  0  0  0  0  0
    8.2400  -30.1730   -2.3614 C   0  0  0  0  0  0
    8.9003  -34.2600   -2.9953 C   0  0  0  0  0  0
    7.6407  -35.1196   -2.8906 C   0  0  0  0  0  0
    6.8295  -34.9617   -4.1057 N   0  0  0  0  0  0
    6.4353  -36.1223   -4.8664 C   0  0  0  0  0  0
    7.1956  -37.1295   -4.9006 O   0  0  0  0  0  0
    5.0951  -36.1869   -5.5740 C   0  0  0  0  0  0
    5.2130  -35.7752   -7.0442 C   0  0  0  0  0  0
    5.2621  -37.0648   -7.8650 C   0  0  0  0  0  0
    5.0413  -38.2252   -6.8994 C   0  0  0  0  0  0
    4.5542  -37.6134   -5.5961 C   0  0  0  0  0  0
    9.7982  -26.2604   -2.0192 H   0  0  0  0  0  0
  1  2  1  0  0  0
  1  3  1  0  0  0
  3  4  1  0  0  0
  4  5  1  0  0  0
  5  6  1  0  0  0
  6  7  2  0  0  0
  7  8  1  0  0  0
  7  9  1  0  0  0
  9 10  1  0  0  0
 10 11  2  0  0  0
 11 12  1  0  0  0
 11 13  1  0  0  0
 13 14  2  0  0  0
 14 15  1  0  0  0
 15 16  2  0  0  0
 16 17  1  0  0  0
 16 18  1  0  0  0
 18 19  2  0  0  0
  9 20  2  0  0  0
 20 21  1  0  0  0
 21 22  1  0  0  0
 22 23  2  0  0  0
 23 24  1  0  0  0
 24 25  2  0  0  0
  4 26  1  0  0  0
 26 27  1  0  0  0
 27 28  1  0  0  0
 28 29  1  0  0  0
 29 30  2  0  0  0
 29 31  1  0  0  0
 31 32  1  0  0  0
 32 33  1  0  0  0
 33 34  1  0  0  0
 34 35  1  0  0  0
 28  1  1  0  0  0
 35 31  1  0  0  0
 25  6  1  0  0  0
 19 13  1  0  0  0
 25 21  1  0  0  0
 12 36  1  0  0  0
M  END
>  <CHROM.0>
25.42185113,172.46474733,-165.61216987,19.89272982,9.16063762,64.78656994
-52.30691742

>  <CHROM.1>
74.49811896,-142.20937673,-128.03030111,-3.16822039,179.76867562,95.55021423
8.59592488,-30.54478062,-4.34808468,-2.69067384,1.06887672,1.07114370

>  <Name>

>  <RI>
0

>  <Rbt.Current_Directory>
/extra/banzai2/j5wagner/CELPP/2016_10_17_rdock_implementation/normal_run/tutorialVideo/tutorial_rdock_implementation/full_week_run/4-docking/5m96/LMCSS_4wqp_docking

>  <Rbt.Executable>
rbdock ($Id: //depot/dev/client3/rdock/2013.1/src/exe/rbdock.cxx#4 $)

>  <Rbt.Library>
libRbt.so (2013.1, Build901 2013/11/27)

>  <Rbt.Parameter_File>
/home/j5wagner/env_00/source/rDock/rDock_2013.1_src//data/scripts/dock.prm

>  <Rbt.Receptor>
/extra/banzai2/j5wagner/CELPP/2016_10_17_rdock_implementation/normal_run/tutorialVideo/tutorial_rdock_implementation/full_week_run/4-docking/5m96/LMCSS_4wqp_tech_prep/rDockGridGenInput.prm

>  <SCORE>
-26.3405

>  <SCORE.INTER>
-19.6064

>  <SCORE.INTER.CONST>
1

>  <SCORE.INTER.POLAR>
-0.350177

>  <SCORE.INTER.REPUL>
0

>  <SCORE.INTER.ROT>
5

>  <SCORE.INTER.VDW>
-28.8158

>  <SCORE.INTER.norm>
-0.560183

>  <SCORE.INTRA>
1.34447

>  <SCORE.INTRA.DIHEDRAL>
-2.33892

>  <SCORE.INTRA.DIHEDRAL.0>
9.74364

>  <SCORE.INTRA.POLAR>
0

>  <SCORE.INTRA.POLAR.0>
0

>  <SCORE.INTRA.REPUL>
0.269219

>  <SCORE.INTRA.REPUL.0>
0.108387

>  <SCORE.INTRA.VDW>
1.16783

>  <SCORE.INTRA.VDW.0>
-2.87247

>  <SCORE.INTRA.norm>
0.0384134

>  <SCORE.RESTR>
0.00117437

>  <SCORE.RESTR.CAVITY>
0.00117437

>  <SCORE.RESTR.norm>
3.35534e-05

>  <SCORE.SYSTEM>
-8.07972

>  <SCORE.SYSTEM.CONST>
0

>  <SCORE.SYSTEM.DIHEDRAL>
2.53963

>  <SCORE.SYSTEM.POLAR>
-2.80379

>  <SCORE.SYSTEM.VDW>
0.183342

>  <SCORE.SYSTEM.norm>
-0.230849

>  <SCORE.heavy>
35

>  <SCORE.norm>
-0.752585

$$$$

  rDOCK(R)          3D
libRbt.so/2013.1/901 2013/11/27
 36 40  0  0  0  0  0  0  0  0999 V2000
   10.6807  -27.1629   -2.6100 C   0  0  0  0  0  0
   11.0090  -27.4716   -4.0761 C   0  0  0  0  0  0
    9.2183  -27.5093   -2.2777 C   0  0  0  0  0  0
    9.0164  -28.9738   -2.2641 N   0  0  0  0  0  0
    7.5896  -29.2854   -2.0407 C   0  0  0  0  0  0
    7.3894  -30.7755   -1.8366 C   0  0  0  0  0  0
    7.2308  -31.7031   -2.9099 C   0  0  0  0  0  0
    7.2182  -31.2191   -4.3419 C   0  0  0  0  0  0
    7.1175  -33.0961   -2.6274 C   0  0  0  0  0  0
    6.9713  -34.0401   -3.7030 N   0  0  0  0  0  0
    6.6169  -35.2880   -3.5932 C   0  0  0  0  0  0
    6.4148  -35.8518   -2.3304 O   0  0  0  0  0  0
    6.4867  -36.1129   -4.8196 C   0  0  0  0  0  0
    6.1352  -37.4701   -4.7593 C   0  0  0  0  0  0
    6.0362  -38.2009   -5.8996 N   0  0  0  0  0  0
    6.2610  -37.6391   -7.1166 C   0  0  0  0  0  0
    6.1926  -38.4756   -8.3503 C   0  0  0  0  0  0
    6.6006  -36.3272   -7.2028 N   0  0  0  0  0  0
    6.7128  -35.5576   -6.0899 C   0  0  0  0  0  0
    7.0760  -33.5240   -1.2861 C   0  0  0  0  0  0
    7.2034  -32.5994   -0.3075 N   0  0  0  0  0  0
    7.2026  -32.7581    1.0226 C   0  0  0  0  0  0
    7.3701  -31.5046    1.5817 C   0  0  0  0  0  0
    7.4733  -30.5714    0.6057 N   0  0  0  0  0  0
    7.3640  -31.2891   -0.5335 C   0  0  0  0  0  0
    9.8606  -29.5897   -1.2183 C   0  0  0  0  0  0
   11.3371  -29.3498   -1.5332 C   0  0  0  0  0  0
   11.5787  -27.9118   -1.7147 N   0  0  0  0  0  0
   12.5949  -27.2466   -0.9361 C   0  0  0  0  0  0
   12.8453  -27.6518    0.2330 O   0  0  0  0  0  0
   13.4179  -26.1112   -1.5142 C   0  0  0  0  0  0
   14.4093  -25.5540   -0.4887 C   0  0  0  0  0  0
   15.7712  -26.1747   -0.8035 C   0  0  0  0  0  0
   15.6135  -26.9878   -2.0848 C   0  0  0  0  0  0
   14.2731  -26.5925   -2.6825 C   0  0  0  0  0  0
    6.2069  -36.8327   -2.1982 H   0  0  0  0  0  0
  1  2  1  0  0  0
  1  3  1  0  0  0
  3  4  1  0  0  0
  4  5  1  0  0  0
  5  6  1  0  0  0
  6  7  2  0  0  0
  7  8  1  0  0  0
  7  9  1  0  0  0
  9 10  1  0  0  0
 10 11  2  0  0  0
 11 12  1  0  0  0
 11 13  1  0  0  0
 13 14  2  0  0  0
 14 15  1  0  0  0
 15 16  2  0  0  0
 16 17  1  0  0  0
 16 18  1  0  0  0
 18 19  2  0  0  0
  9 20  2  0  0  0
 20 21  1  0  0  0
 21 22  1  0  0  0
 22 23  2  0  0  0
 23 24  1  0  0  0
 24 25  2  0  0  0
  4 26  1  0  0  0
 26 27  1  0  0  0
 27 28  1  0  0  0
 28 29  1  0  0  0
 29 30  2  0  0  0
 29 31  1  0  0  0
 31 32  1  0  0  0
 32 33  1  0  0  0
 33 34  1  0  0  0
 34 35  1  0  0  0
 28  1  1  0  0  0
 35 31  1  0  0  0
 25  6  1  0  0  0
 19 13  1  0  0  0
 25 21  1  0  0  0
 12 36  1  0  0  0
M  END
>  <CHROM.0>
30.01856428,64.12542535,-158.22626256,22.79556052,-152.14437269,-177.85679947
-51.17806530

>  <CHROM.1>
-172.35407049,-85.21267048,-166.55529002,-175.32133375,178.65680810,178.95515479
9.08790207,-31.31861615,-2.58519997,-0.75647813,-0.71523891,-2.14949344

>  <Name>

>  <RI>
0

>  <Rbt.Current_Directory>
/extra/banzai2/j5wagner/CELPP/2016_10_17_rdock_implementation/normal_run/tutorialVideo/tutorial_rdock_implementation/full_week_run/4-docking/5m96/LMCSS_4wqp_docking

>  <Rbt.Executable>
rbdock ($Id: //depot/dev/client3/rdock/2013.1/src/exe/rbdock.cxx#4 $)

>  <Rbt.Library>
libRbt.so (2013.1, Build901 2013/11/27)

>  <Rbt.Parameter_File>
/home/j5wagner/env_00/source/rDock/rDock_2013.1_src//data/scripts/dock.prm

>  <Rbt.Receptor>
/extra/banzai2/j5wagner/CELPP/2016_10_17_rdock_implementation/normal_run/tutorialVideo/tutorial_rdock_implementation/full_week_run/4-docking/5m96/LMCSS_4wqp_tech_prep/rDockGridGenInput.prm

>  <SCORE>
-17.3298

>  <SCORE.INTER>
-10.094

>  <SCORE.INTER.CONST>
1

>  <SCORE.INTER.POLAR>
0

>  <SCORE.INTER.REPUL>
0

>  <SCORE.INTER.ROT>
5

>  <SCORE.INTER.VDW>
-20.494

>  <SCORE.INTER.norm>
-0.288401

>  <SCORE.INTRA>
-1.76356

>  <SCORE.INTRA.DIHEDRAL>
-7.91969

>  <SCORE.INTRA.DIHEDRAL.0>
9.74364

>  <SCORE.INTRA.POLAR>
0

>  <SCORE.INTRA.POLAR.0>
0

>  <SCORE.INTRA.REPUL>
-0.108387

>  <SCORE.INTRA.REPUL.0>
0.108387

>  <SCORE.INTRA.VDW>
2.73822

>  <SCORE.INTRA.VDW.0>
-2.87247

>  <SCORE.INTRA.norm>
-0.0503873

>  <SCORE.RESTR>
0

>  <SCORE.RESTR.CAVITY>
0

>  <SCORE.RESTR.norm>
0

>  <SCORE.SYSTEM>
-5.47221

>  <SCORE.SYSTEM.CONST>
0

>  <SCORE.SYSTEM.DIHEDRAL>
4.12552

>  <SCORE.SYSTEM.POLAR>
-2.00853

>  <SCORE.SYSTEM.VDW>
-0.705947

>  <SCORE.SYSTEM.norm>
-0.156349

>  <SCORE.heavy>
35

>  <SCORE.norm>
-0.495137

$$$$

  rDOCK(R)          3D
libRbt.so/2013.1/901 2013/11/27
 36 40  0  0  0  0  0  0  0  0999 V2000
    7.8579  -30.1663   -2.0263 C   0  0  0  0  0  0
    8.6633  -29.8079   -0.7711 C   0  0  0  0  0  0
    8.4347  -29.4803   -3.2776 C   0  0  0  0  0  0
    9.7351  -30.0769   -3.6502 N   0  0  0  0  0  0
   10.3192  -29.3434   -4.7919 C   0  0  0  0  0  0
   11.0320  -28.0902   -4.3189 C   0  0  0  0  0  0
   12.3090  -28.1038   -3.6813 C   0  0  0  0  0  0
   13.0123  -29.4136   -3.4082 C   0  0  0  0  0  0
   12.9362  -26.8718   -3.3321 C   0  0  0  0  0  0
   14.2294  -26.8745   -2.7019 N   0  0  0  0  0  0
   14.5237  -26.3677   -1.5394 C   0  0  0  0  0  0
   13.5540  -25.6737   -0.8105 O   0  0  0  0  0  0
   15.9114  -26.4888   -1.0286 C   0  0  0  0  0  0
   16.2686  -26.0260    0.2470 C   0  0  0  0  0  0
   17.5505  -26.1405    0.6806 N   0  0  0  0  0  0
   18.5076  -26.7113   -0.0975 C   0  0  0  0  0  0
   19.9184  -26.7816    0.3834 C   0  0  0  0  0  0
   18.1878  -27.1692   -1.3352 N   0  0  0  0  0  0
   16.9198  -27.0750   -1.8114 C   0  0  0  0  0  0
   12.2433  -25.6639   -3.5437 C   0  0  0  0  0  0
   11.0241  -25.7107   -4.1266 N   0  0  0  0  0  0
   10.1858  -24.7122   -4.4346 C   0  0  0  0  0  0
    9.0715  -25.2832   -5.0211 C   0  0  0  0  0  0
    9.2146  -26.6287   -5.0768 N   0  0  0  0  0  0
   10.4248  -26.8434   -4.5162 C   0  0  0  0  0  0
    9.5583  -31.5077   -3.9776 C   0  0  0  0  0  0
    9.0607  -32.2656   -2.7469 C   0  0  0  0  0  0
    7.8443  -31.6251   -2.2278 N   0  0  0  0  0  0
    6.6426  -32.4014   -2.0423 C   0  0  0  0  0  0
    6.4058  -33.3723   -2.8136 O   0  0  0  0  0  0
    5.6871  -32.1195   -0.8985 C   0  0  0  0  0  0
    4.8760  -33.3624   -0.5215 C   0  0  0  0  0  0
    5.5448  -33.9735    0.7108 C   0  0  0  0  0  0
    6.6617  -33.0256    1.1371 C   0  0  0  0  0  0
    6.4455  -31.7328    0.3677 C   0  0  0  0  0  0
   13.7543  -25.2238    0.0729 H   0  0  0  0  0  0
  1  2  1  0  0  0
  1  3  1  0  0  0
  3  4  1  0  0  0
  4  5  1  0  0  0
  5  6  1  0  0  0
  6  7  2  0  0  0
  7  8  1  0  0  0
  7  9  1  0  0  0
  9 10  1  0  0  0
 10 11  2  0  0  0
 11 12  1  0  0  0
 11 13  1  0  0  0
 13 14  2  0  0  0
 14 15  1  0  0  0
 15 16  2  0  0  0
 16 17  1  0  0  0
 16 18  1  0  0  0
 18 19  2  0  0  0
  9 20  2  0  0  0
 20 21  1  0  0  0
 21 22  1  0  0  0
 22 23  2  0  0  0
 23 24  1  0  0  0
 24 25  2  0  0  0
  4 26  1  0  0  0
 26 27  1  0  0  0
 27 28  1  0  0  0
 28 29  1  0  0  0
 29 30  2  0  0  0
 29 31  1  0  0  0
 31 32  1  0  0  0
 32 33  1  0  0  0
 33 34  1  0  0  0
 34 35  1  0  0  0
 28  1  1  0  0  0
 35 31  1  0  0  0
 25  6  1  0  0  0
 19 13  1  0  0  0
 25 21  1  0  0  0
 12 36  1  0  0  0
M  END
>  <CHROM.0>
-101.77394141,61.44906856,16.36499103,17.46384451,8.09313988,66.31247351
-51.28414157

>  <CHROM.1>
82.14539046,75.75080655,-120.83884934,-176.72230721,-176.51035015,-154.76958336
11.12188497,-28.82365904,-2.16902391,2.79042495,0.41470912,2.35213386

>  <Name>

>  <RI>
0

>  <Rbt.Current_Directory>
/extra/banzai2/j5wagner/CELPP/2016_10_17_rdock_implementation/normal_run/tutorialVideo/tutorial_rdock_implementation/full_week_run/4-docking/5m96/LMCSS_4wqp_docking

>  <Rbt.Executable>
rbdock ($Id: //depot/dev/client3/rdock/2013.1/src/exe/rbdock.cxx#4 $)

>  <Rbt.Library>
libRbt.so (2013.1, Build901 2013/11/27)

>  <Rbt.Parameter_File>
/home/j5wagner/env_00/source/rDock/rDock_2013.1_src//data/scripts/dock.prm

>  <Rbt.Receptor>
/extra/banzai2/j5wagner/CELPP/2016_10_17_rdock_implementation/normal_run/tutorialVideo/tutorial_rdock_implementation/full_week_run/4-docking/5m96/LMCSS_4wqp_tech_prep/rDockGridGenInput.prm

>  <SCORE>
-24.509

>  <SCORE.INTER>
-15.2019

>  <SCORE.INTER.CONST>
1

>  <SCORE.INTER.POLAR>
-0.985917

>  <SCORE.INTER.REPUL>
0

>  <SCORE.INTER.ROT>
5

>  <SCORE.INTER.VDW>
-22.2498

>  <SCORE.INTER.norm>
-0.43434

>  <SCORE.INTRA>
-0.536243

>  <SCORE.INTRA.DIHEDRAL>
-2.06075

>  <SCORE.INTRA.DIHEDRAL.0>
9.74364

>  <SCORE.INTRA.POLAR>
0

>  <SCORE.INTRA.POLAR.0>
0

>  <SCORE.INTRA.REPUL>
-0.108387

>  <SCORE.INTRA.REPUL.0>
0.108387

>  <SCORE.INTRA.VDW>
1.03607

>  <SCORE.INTRA.VDW.0>
-2.87247

>  <SCORE.INTRA.norm>
-0.0153212

>  <SCORE.RESTR>
0

>  <SCORE.RESTR.CAVITY>
0

>  <SCORE.RESTR.norm>
0

>  <SCORE.SYSTEM>
-8.77084

>  <SCORE.SYSTEM.CONST>
0

>  <SCORE.SYSTEM.DIHEDRAL>
6.08803

>  <SCORE.SYSTEM.POLAR>
-3.33801

>  <SCORE.SYSTEM.REPUL>
0.181135

>  <SCORE.SYSTEM.VDW>
-1.3713

>  <SCORE.SYSTEM.norm>
-0.250596

>  <SCORE.heavy>
35

>  <SCORE.norm>
-0.700257

$$$$

  rDOCK(R)          3D
libRbt.so/2013.1/901 2013/11/27
 36 40  0  0  0  0  0  0  0  0999 V2000
   10.1092  -25.6302   -3.9886 C   0  0  0  0  0  0
    9.0416  -25.9287   -5.0486 C   0  0  0  0  0  0
   10.1496  -26.7266   -2.9090 C   0  0  0  0  0  0
   10.7031  -27.9829   -3.4579 N   0  0  0  0  0  0
   10.6437  -29.0497   -2.4376 C   0  0  0  0  0  0
    9.2905  -29.7358   -2.4542 C   0  0  0  0  0  0
    9.0677  -31.0241   -3.0270 C   0  0  0  0  0  0
   10.2004  -31.7684   -3.6964 C   0  0  0  0  0  0
    7.7770  -31.6231   -2.9358 C   0  0  0  0  0  0
    7.5461  -32.9270   -3.4978 N   0  0  0  0  0  0
    6.4646  -33.3280   -4.1013 C   0  0  0  0  0  0
    5.3524  -32.4855   -4.1821 O   0  0  0  0  0  0
    6.4114  -34.7057   -4.6495 C   0  0  0  0  0  0
    7.5754  -35.4637   -4.8485 C   0  0  0  0  0  0
    7.4938  -36.7176   -5.3636 N   0  0  0  0  0  0
    6.2940  -37.2690   -5.6850 C   0  0  0  0  0  0
    6.2357  -38.6300   -6.2941 C   0  0  0  0  0  0
    5.1522  -36.5576   -5.5005 N   0  0  0  0  0  0
    5.1848  -35.3001   -4.9896 C   0  0  0  0  0  0
    6.7202  -30.8932   -2.3577 C   0  0  0  0  0  0
    6.9808  -29.6653   -1.8547 N   0  0  0  0  0  0
    6.1563  -28.7941   -1.2581 C   0  0  0  0  0  0
    6.9109  -27.6857   -0.9210 C   0  0  0  0  0  0
    8.1967  -27.8651   -1.3064 N   0  0  0  0  0  0
    8.1905  -29.0907   -1.8744 C   0  0  0  0  0  0
   12.0928  -27.7654   -3.9131 C   0  0  0  0  0  0
   12.1146  -26.7401   -5.0468 C   0  0  0  0  0  0
   11.4359  -25.5098   -4.6166 N   0  0  0  0  0  0
   12.1171  -24.2412   -4.7041 C   0  0  0  0  0  0
   13.3702  -24.1982   -4.5568 O   0  0  0  0  0  0
   11.3703  -22.9632   -5.0355 C   0  0  0  0  0  0
   12.3314  -21.8166   -5.3620 C   0  0  0  0  0  0
   12.3929  -21.7079   -6.8863 C   0  0  0  0  0  0
   11.3754  -22.6937   -7.4525 C   0  0  0  0  0  0
   10.5108  -23.1377   -6.2839 C   0  0  0  0  0  0
    5.4173  -31.4837   -4.0587 H   0  0  0  0  0  0
  1  2  1  0  0  0
  1  3  1  0  0  0
  3  4  1  0  0  0
  4  5  1  0  0  0
  5  6  1  0  0  0
  6  7  2  0  0  0
  7  8  1  0  0  0
  7  9  1  0  0  0
  9 10  1  0  0  0
 10 11  2  0  0  0
 11 12  1  0  0  0
 11 13  1  0  0  0
 13 14  2  0  0  0
 14 15  1  0  0  0
 15 16  2  0  0  0
 16 17  1  0  0  0
 16 18  1  0  0  0
 18 19  2  0  0  0
  9 20  2  0  0  0
 20 21  1  0  0  0
 21 22  1  0  0  0
 22 23  2  0  0  0
 23 24  1  0  0  0
 24 25  2  0  0  0
  4 26  1  0  0  0
 26 27  1  0  0  0
 27 28  1  0  0  0
 28 29  1  0  0  0
 29 30  2  0  0  0
 29 31  1  0  0  0
 31 32  1  0  0  0
 32 33  1  0  0  0
 33 34  1  0  0  0
 34 35  1  0  0  0
 28  1  1  0  0  0
 35 31  1  0  0  0
 25  6  1  0  0  0
 19 13  1  0  0  0
 25 21  1  0  0  0
 12 36  1  0  0  0
M  END
>  <CHROM.0>
27.54744162,-47.34733351,19.20255729,12.09644845,7.82044598,-53.84294748
-54.94021611

>  <CHROM.1>
85.62737069,103.72897286,-142.74297357,19.73432075,-16.69948011,-167.91444422
8.97834258,-29.30270687,-4.10401450,0.81698870,0.92429913,0.60450792

>  <Name>

>  <RI>
0

>  <Rbt.Current_Directory>
/extra/banzai2/j5wagner/CELPP/2016_10_17_rdock_implementation/normal_run/tutorialVideo/tutorial_rdock_implementation/full_week_run/4-docking/5m96/LMCSS_4wqp_docking

>  <Rbt.Executable>
rbdock ($Id: //depot/dev/client3/rdock/2013.1/src/exe/rbdock.cxx#4 $)

>  <Rbt.Library>
libRbt.so (2013.1, Build901 2013/11/27)

>  <Rbt.Parameter_File>
/home/j5wagner/env_00/source/rDock/rDock_2013.1_src//data/scripts/dock.prm

>  <Rbt.Receptor>
/extra/banzai2/j5wagner/CELPP/2016_10_17_rdock_implementation/normal_run/tutorialVideo/tutorial_rdock_implementation/full_week_run/4-docking/5m96/LMCSS_4wqp_tech_prep/rDockGridGenInput.prm

>  <SCORE>
-5.32061

>  <SCORE.INTER>
-1.96117

>  <SCORE.INTER.CONST>
1

>  <SCORE.INTER.POLAR>
0

>  <SCORE.INTER.REPUL>
0.155062

>  <SCORE.INTER.ROT>
5

>  <SCORE.INTER.VDW>
-13.1365

>  <SCORE.INTER.norm>
-0.0560335

>  <SCORE.INTRA>
1.60889

>  <SCORE.INTRA.DIHEDRAL>
-1.90724

>  <SCORE.INTRA.DIHEDRAL.0>
9.74364

>  <SCORE.INTRA.POLAR>
0

>  <SCORE.INTRA.POLAR.0>
0

>  <SCORE.INTRA.REPUL>
-0.108387

>  <SCORE.INTRA.REPUL.0>
0.108387

>  <SCORE.INTRA.VDW>
3.10445

>  <SCORE.INTRA.VDW.0>
-2.87247

>  <SCORE.INTRA.norm>
0.0459684

>  <SCORE.RESTR>
0

>  <SCORE.RESTR.CAVITY>
0

>  <SCORE.RESTR.norm>
0

>  <SCORE.SYSTEM>
-4.96833

>  <SCORE.SYSTEM.CONST>
0

>  <SCORE.SYSTEM.DIHEDRAL>
2.93672

>  <SCORE.SYSTEM.POLAR>
-2.10484

>  <SCORE.SYSTEM.REPUL>
0.0280136

>  <SCORE.SYSTEM.VDW>
0.579706

>  <SCORE.SYSTEM.norm>
-0.141952

>  <SCORE.heavy>
35

>  <SCORE.norm>
-0.152017

$$$$

  rDOCK(R)          3D
libRbt.so/2013.1/901 2013/11/27
 36 40  0  0  0  0  0  0  0  0999 V2000
    5.6970  -34.7800   -4.2221 C   0  0  0  0  0  0
    6.3004  -35.3867   -2.9492 C   0  0  0  0  0  0
    5.5602  -33.2514   -4.1044 C   0  0  0  0  0  0
    6.8880  -32.6020   -4.1368 N   0  0  0  0  0  0
    6.7444  -31.1470   -3.9248 C   0  0  0  0  0  0
    7.5315  -30.7000   -2.7071 C   0  0  0  0  0  0
    8.7676  -29.9905   -2.7852 C   0  0  0  0  0  0
    9.3839  -29.6760   -4.1292 C   0  0  0  0  0  0
    9.4042  -29.5485   -1.5884 C   0  0  0  0  0  0
   10.6430  -28.8206   -1.6574 N   0  0  0  0  0  0
   10.9523  -27.7551   -0.9763 C   0  0  0  0  0  0
   10.0091  -27.1638   -0.1313 O   0  0  0  0  0  0
   12.2951  -27.1491   -1.1526 C   0  0  0  0  0  0
   13.2389  -27.6964   -2.0351 C   0  0  0  0  0  0
   14.4641  -27.1249   -2.1648 N   0  0  0  0  0  0
   14.7994  -26.0128   -1.4592 C   0  0  0  0  0  0
   16.1685  -25.4327   -1.5841 C   0  0  0  0  0  0
   13.9037  -25.4621   -0.6000 N   0  0  0  0  0  0
   12.6676  -25.9994   -0.4365 C   0  0  0  0  0  0
    8.8450  -29.8975   -0.3436 C   0  0  0  0  0  0
    7.6864  -30.5945   -0.3271 N   0  0  0  0  0  0
    6.9667  -31.0304    0.7153 C   0  0  0  0  0  0
    5.8632  -31.6862    0.2016 C   0  0  0  0  0  0
    5.8963  -31.6599   -1.1520 N   0  0  0  0  0  0
    7.0314  -30.9820   -1.4293 C   0  0  0  0  0  0
    7.5559  -32.8838   -5.4253 C   0  0  0  0  0  0
    7.7951  -34.3866   -5.5698 C   0  0  0  0  0  0
    6.5286  -35.1103   -5.3918 N   0  0  0  0  0  0
    6.0717  -36.0266   -6.4080 C   0  0  0  0  0  0
    6.3531  -35.8019   -7.6180 O   0  0  0  0  0  0
    5.3160  -37.2922   -6.0504 C   0  0  0  0  0  0
    5.1455  -38.2097   -7.2645 C   0  0  0  0  0  0
    6.2194  -39.2934   -7.1578 C   0  0  0  0  0  0
    6.9323  -39.0952   -5.8235 C   0  0  0  0  0  0
    6.0847  -38.1191   -5.0241 C   0  0  0  0  0  0
   10.1767  -26.2869    0.3439 H   0  0  0  0  0  0
  1  2  1  0  0  0
  1  3  1  0  0  0
  3  4  1  0  0  0
  4  5  1  0  0  0
  5  6  1  0  0  0
  6  7  2  0  0  0
  7  8  1  0  0  0
  7  9  1  0  0  0
  9 10  1  0  0  0
 10 11  2  0  0  0
 11 12  1  0  0  0
 11 13  1  0  0  0
 13 14  2  0  0  0
 14 15  1  0  0  0
 15 16  2  0  0  0
 16 17  1  0  0  0
 16 18  1  0  0  0
 18 19  2  0  0  0
  9 20  2  0  0  0
 20 21  1  0  0  0
 21 22  1  0  0  0
 22 23  2  0  0  0
 23 24  1  0  0  0
 24 25  2  0  0  0
  4 26  1  0  0  0
 26 27  1  0  0  0
 27 28  1  0  0  0
 28 29  1  0  0  0
 29 30  2  0  0  0
 29 31  1  0  0  0
 31 32  1  0  0  0
 32 33  1  0  0  0
 33 34  1  0  0  0
 34 35  1  0  0  0
 28  1  1  0  0  0
 35 31  1  0  0  0
 25  6  1  0  0  0
 19 13  1  0  0  0
 25 21  1  0  0  0
 12 36  1  0  0  0
M  END
>  <CHROM.0>
16.32516141,62.39893124,18.97101129,28.11411988,8.40247213,65.11641367,53.93280605

>  <CHROM.1>
121.28963180,104.99612765,136.06264219,-173.80522451,-0.00798040,-170.45882457
8.60266079,-31.69922691,-3.09516457,2.21062072,-0.50292348,-2.35131002

>  <Name>

>  <RI>
0

>  <Rbt.Current_Directory>
/extra/banzai2/j5wagner/CELPP/2016_10_17_rdock_implementation/normal_run/tutorialVideo/tutorial_rdock_implementation/full_week_run/4-docking/5m96/LMCSS_4wqp_docking

>  <Rbt.Executable>
rbdock ($Id: //depot/dev/client3/rdock/2013.1/src/exe/rbdock.cxx#4 $)

>  <Rbt.Library>
libRbt.so (2013.1, Build901 2013/11/27)

>  <Rbt.Parameter_File>
/home/j5wagner/env_00/source/rDock/rDock_2013.1_src//data/scripts/dock.prm

>  <Rbt.Receptor>
/extra/banzai2/j5wagner/CELPP/2016_10_17_rdock_implementation/normal_run/tutorialVideo/tutorial_rdock_implementation/full_week_run/4-docking/5m96/LMCSS_4wqp_tech_prep/rDockGridGenInput.prm

>  <SCORE>
-20.4543

>  <SCORE.INTER>
-11.3706

>  <SCORE.INTER.CONST>
1

>  <SCORE.INTER.POLAR>
0

>  <SCORE.INTER.REPUL>
0

>  <SCORE.INTER.ROT>
5

>  <SCORE.INTER.VDW>
-21.7706

>  <SCORE.INTER.norm>
-0.324874

>  <SCORE.INTRA>
-1.40348

>  <SCORE.INTRA.DIHEDRAL>
-2.51544

>  <SCORE.INTRA.DIHEDRAL.0>
9.74364

>  <SCORE.INTRA.POLAR>
0

>  <SCORE.INTRA.POLAR.0>
0

>  <SCORE.INTRA.REPUL>
-0.108387

>  <SCORE.INTRA.REPUL.0>
0.108387

>  <SCORE.INTRA.VDW>
0.396176

>  <SCORE.INTRA.VDW.0>
-2.87247

>  <SCORE.INTRA.norm>
-0.0400994

>  <SCORE.RESTR>
0

>  <SCORE.RESTR.CAVITY>
0

>  <SCORE.RESTR.norm>
0

>  <SCORE.SYSTEM>
-7.68018

>  <SCORE.SYSTEM.CONST>
0

>  <SCORE.SYSTEM.DIHEDRAL>
2.38281

>  <SCORE.SYSTEM.POLAR>
-2.33534

>  <SCORE.SYSTEM.VDW>
-0.931426

>  <SCORE.SYSTEM.norm>
-0.219434

>  <SCORE.heavy>
35

>  <SCORE.norm>
-0.584408

$$$$

  rDOCK(R)          3D
libRbt.so/2013.1/901 2013/11/27
 36 40  0  0  0  0  0  0  0  0999 V2000
   11.9411  -28.5691   -3.1850 C   0  0  0  0  0  0
   12.5712  -29.9650   -3.2695 C   0  0  0  0  0  0
   10.4305  -28.6171   -3.4768 C   0  0  0  0  0  0
    9.7033  -29.2745   -2.3701 N   0  0  0  0  0  0
    8.2710  -29.3993   -2.7101 C   0  0  0  0  0  0
    7.7573  -30.7874   -2.3765 C   0  0  0  0  0  0
    7.5596  -31.8097   -3.3530 C   0  0  0  0  0  0
    7.8274  -31.5317   -4.8145 C   0  0  0  0  0  0
    7.1393  -33.1080   -2.9398 C   0  0  0  0  0  0
    6.9507  -34.1488   -3.9148 N   0  0  0  0  0  0
    7.2052  -35.4152   -3.7525 C   0  0  0  0  0  0
    7.7891  -35.8673   -2.5660 O   0  0  0  0  0  0
    6.9195  -36.3578   -4.8622 C   0  0  0  0  0  0
    6.7507  -35.9111   -6.1817 C   0  0  0  0  0  0
    6.4780  -36.7982   -7.1731 N   0  0  0  0  0  0
    6.3743  -38.1289   -6.9170 C   0  0  0  0  0  0
    6.0264  -39.0768   -8.0157 C   0  0  0  0  0  0
    6.5352  -38.5876   -5.6491 N   0  0  0  0  0  0
    6.8078  -37.7380   -4.6258 C   0  0  0  0  0  0
    6.8417  -33.3341   -1.5818 C   0  0  0  0  0  0
    7.0206  -32.3222   -0.7028 N   0  0  0  0  0  0
    6.8169  -32.2947    0.6209 C   0  0  0  0  0  0
    7.1537  -31.0269    1.0578 C   0  0  0  0  0  0
    7.5634  -30.2695    0.0125 N   0  0  0  0  0  0
    7.4634  -31.1051   -1.0442 C   0  0  0  0  0  0
    9.8836  -28.5050   -1.1207 C   0  0  0  0  0  0
   11.3612  -28.4866   -0.7294 C   0  0  0  0  0  0
   12.1658  -27.9848   -1.8520 N   0  0  0  0  0  0
   13.0580  -26.8678   -1.6583 C   0  0  0  0  0  0
   12.7597  -25.9738   -0.8183 O   0  0  0  0  0  0
   14.3814  -26.7755   -2.3935 C   0  0  0  0  0  0
   15.1921  -25.5562   -1.9451 C   0  0  0  0  0  0
   16.2347  -26.0583   -0.9450 C   0  0  0  0  0  0
   16.1276  -27.5797   -0.9040 C   0  0  0  0  0  0
   15.2643  -27.9819   -2.0885 C   0  0  0  0  0  0
    8.1568  -35.2378   -1.8649 H   0  0  0  0  0  0
  1  2  1  0  0  0
  1  3  1  0  0  0
  3  4  1  0  0  0
  4  5  1  0  0  0
  5  6  1  0  0  0
  6  7  2  0  0  0
  7  8  1  0  0  0
  7  9  1  0  0  0
  9 10  1  0  0  0
 10 11  2  0  0  0
 11 12  1  0  0  0
 11 13  1  0  0  0
 13 14  2  0  0  0
 14 15  1  0  0  0
 15 16  2  0  0  0
 16 17  1  0  0  0
 16 18  1  0  0  0
 18 19  2  0  0  0
  9 20  2  0  0  0
 20 21  1  0  0  0
 21 22  1  0  0  0
 22 23  2  0  0  0
 23 24  1  0  0  0
 24 25  2  0  0  0
  4 26  1  0  0  0
 26 27  1  0  0  0
 27 28  1  0  0  0
 28 29  1  0  0  0
 29 30  2  0  0  0
 29 31  1  0  0  0
 31 32  1  0  0  0
 32 33  1  0  0  0
 33 34  1  0  0  0
 34 35  1  0  0  0
 28  1  1  0  0  0
 35 31  1  0  0  0
 25  6  1  0  0  0
 19 13  1  0  0  0
 25 21  1  0  0  0
 12 36  1  0  0  0
M  END
>  <CHROM.0>
111.17784049,60.45872523,15.56038669,12.80808502,-166.45996482,179.23624862
-54.40484638

>  <CHROM.1>
134.57024676,-101.57471370,144.48112960,-9.36409576,18.40480793,-175.81762922
9.50086892,-31.47666554,-2.80023946,-0.85011249,-0.52574712,-2.35859239

>  <Name>

>  <RI>
0

>  <Rbt.Current_Directory>
/extra/banzai2/j5wagner/CELPP/2016_10_17_rdock_implementation/normal_run/tutorialVideo/tutorial_rdock_implementation/full_week_run/4-docking/5m96/LMCSS_4wqp_docking

>  <Rbt.Executable>
rbdock ($Id: //depot/dev/client3/rdock/2013.1/src/exe/rbdock.cxx#4 $)

>  <Rbt.Library>
libRbt.so (2013.1, Build901 2013/11/27)

>  <Rbt.Parameter_File>
/home/j5wagner/env_00/source/rDock/rDock_2013.1_src//data/scripts/dock.prm

>  <Rbt.Receptor>
/extra/banzai2/j5wagner/CELPP/2016_10_17_rdock_implementation/normal_run/tutorialVideo/tutorial_rdock_implementation/full_week_run/4-docking/5m96/LMCSS_4wqp_tech_prep/rDockGridGenInput.prm

>  <SCORE>
-15.619

>  <SCORE.INTER>
-10.9355

>  <SCORE.INTER.CONST>
1

>  <SCORE.INTER.POLAR>
0

>  <SCORE.INTER.REPUL>
0.058651

>  <SCORE.INTER.ROT>
5

>  <SCORE.INTER.VDW>
-21.6287

>  <SCORE.INTER.norm>
-0.312443

>  <SCORE.INTRA>
-0.249583

>  <SCORE.INTRA.DIHEDRAL>
-1.818

>  <SCORE.INTRA.DIHEDRAL.0>
9.74364

>  <SCORE.INTRA.POLAR>
0

>  <SCORE.INTRA.POLAR.0>
0

>  <SCORE.INTRA.REPUL>
-0.108387

>  <SCORE.INTRA.REPUL.0>
0.108387

>  <SCORE.INTRA.VDW>
1.20135

>  <SCORE.INTRA.VDW.0>
-2.87247

>  <SCORE.INTRA.norm>
-0.00713095

>  <SCORE.RESTR>
0

>  <SCORE.RESTR.CAVITY>
0

>  <SCORE.RESTR.norm>
0

>  <SCORE.SYSTEM>
-4.43395

>  <SCORE.SYSTEM.CONST>
0

>  <SCORE.SYSTEM.DIHEDRAL>
5.18526

>  <SCORE.SYSTEM.POLAR>
-2.00048

>  <SCORE.SYSTEM.VDW>
-0.224933

>  <SCORE.SYSTEM.norm>
-0.126684

>  <SCORE.heavy>
35

>  <SCORE.norm>
-0.446258

$$$$

  rDOCK(R)          3D
libRbt.so/2013.1/901 2013/11/27
 36 40  0  0  0  0  0  0  0  0999 V2000
    6.7318  -33.2238   -4.6027 C   0  0  0  0  0  0
    5.6963  -32.6165   -3.6480 C   0  0  0  0  0  0
    8.0233  -32.3870   -4.6352 C   0  0  0  0  0  0
    8.7655  -32.5185   -3.3633 N   0  0  0  0  0  0
    9.9490  -31.6343   -3.3749 C   0  0  0  0  0  0
    9.5377  -30.1822   -3.2188 C   0  0  0  0  0  0
   10.2259  -29.0975   -3.8413 C   0  0  0  0  0  0
   11.4565  -29.3550   -4.6805 C   0  0  0  0  0  0
    9.7275  -27.7696   -3.6959 C   0  0  0  0  0  0
   10.4061  -26.6714   -4.3309 N   0  0  0  0  0  0
    9.8474  -25.6349   -4.8861 C   0  0  0  0  0  0
    8.4552  -25.5514   -4.9752 O   0  0  0  0  0  0
   10.7076  -24.5764   -5.4700 C   0  0  0  0  0  0
   12.1058  -24.6940   -5.4925 C   0  0  0  0  0  0
   12.8659  -23.7016   -6.0234 N   0  0  0  0  0  0
   12.2969  -22.5862   -6.5517 C   0  0  0  0  0  0
   13.1566  -21.4894   -7.0851 C   0  0  0  0  0  0
   10.9461  -22.4484   -6.5443 N   0  0  0  0  0  0
   10.1460  -23.4137   -6.0232 C   0  0  0  0  0  0
    8.6125  -27.5412   -2.8662 C   0  0  0  0  0  0
    8.0149  -28.6023   -2.2785 N   0  0  0  0  0  0
    6.9517  -28.6410   -1.4644 C   0  0  0  0  0  0
    6.7355  -29.9678   -1.1408 C   0  0  0  0  0  0
    7.6591  -30.7500   -1.7486 N   0  0  0  0  0  0
    8.4213  -29.8692   -2.4327 C   0  0  0  0  0  0
    9.1618  -33.9273   -3.1540 C   0  0  0  0  0  0
    7.9167  -34.8057   -3.0321 C   0  0  0  0  0  0
    7.0509  -34.6046   -4.2023 N   0  0  0  0  0  0
    6.6350  -35.7356   -4.9954 C   0  0  0  0  0  0
    7.4031  -36.7312   -5.1073 O   0  0  0  0  0  0
    5.2655  -35.7852   -5.6457 C   0  0  0  0  0  0
    5.3633  -35.7225   -7.1726 C   0  0  0  0  0  0
    5.2227  -37.1560   -7.6869 C   0  0  0  0  0  0
    4.9115  -38.0407   -6.4835 C   0  0  0  0  0  0
    4.5601  -37.1032   -5.3400 C   0  0  0  0  0  0
    7.8438  -26.2991   -4.6750 H   0  0  0  0  0  0
  1  2  1  0  0  0
  1  3  1  0  0  0
  3  4  1  0  0  0
  4  5  1  0  0  0
  5  6  1  0  0  0
  6  7  2  0  0  0
  7  8  1  0  0  0
  7  9  1  0  0  0
  9 10  1  0  0  0
 10 11  2  0  0  0
 11 12  1  0  0  0
 11 13  1  0  0  0
 13 14  2  0  0  0
 14 15  1  0  0  0
 15 16  2  0  0  0
 16 17  1  0  0  0
 16 18  1  0  0  0
 18 19  2  0  0  0
  9 20  2  0  0  0
 20 21  1  0  0  0
 21 22  1  0  0  0
 22 23  2  0  0  0
 23 24  1  0  0  0
 24 25  2  0  0  0
  4 26  1  0  0  0
 26 27  1  0  0  0
 27 28  1  0  0  0
 28 29  1  0  0  0
 29 30  2  0  0  0
 29 31  1  0  0  0
 31 32  1  0  0  0
 32 33  1  0  0  0
 33 34  1  0  0  0
 34 35  1  0  0  0
 28  1  1  0  0  0
 35 31  1  0  0  0
 25  6  1  0  0  0
 19 13  1  0  0  0
 25 21  1  0  0  0
 12 36  1  0  0  0
M  END
>  <CHROM.0>
29.26670275,-47.31582754,16.46219827,19.71999274,9.11502738,64.52316417,-53.78706021

>  <CHROM.1>
73.18659185,-146.28901107,142.24332569,-4.00854688,2.93967428,112.64852359
8.57146349,-30.19791104,-4.51290129,-2.84114004,1.14166696,1.20969569

>  <Name>

>  <RI>
0

>  <Rbt.Current_Directory>
/extra/banzai2/j5wagner/CELPP/2016_10_17_rdock_implementation/normal_run/tutorialVideo/tutorial_rdock_implementation/full_week_run/4-docking/5m96/LMCSS_4wqp_docking

>  <Rbt.Executable>
rbdock ($Id: //depot/dev/client3/rdock/2013.1/src/exe/rbdock.cxx#4 $)

>  <Rbt.Library>
libRbt.so (2013.1, Build901 2013/11/27)

>  <Rbt.Parameter_File>
/home/j5wagner/env_00/source/rDock/rDock_2013.1_src//data/scripts/dock.prm

>  <Rbt.Receptor>
/extra/banzai2/j5wagner/CELPP/2016_10_17_rdock_implementation/normal_run/tutorialVideo/tutorial_rdock_implementation/full_week_run/4-docking/5m96/LMCSS_4wqp_tech_prep/rDockGridGenInput.prm

>  <SCORE>
-29.1266

>  <SCORE.INTER>
-23.0436

>  <SCORE.INTER.CONST>
1

>  <SCORE.INTER.POLAR>
-0.983386

>  <SCORE.INTER.REPUL>
0

>  <SCORE.INTER.ROT>
5

>  <SCORE.INTER.VDW>
-30.1001

>  <SCORE.INTER.norm>
-0.65839

>  <SCORE.INTRA>
1.41698

>  <SCORE.INTRA.DIHEDRAL>
-2.25818

>  <SCORE.INTRA.DIHEDRAL.0>
9.74364

>  <SCORE.INTRA.POLAR>
0

>  <SCORE.INTRA.POLAR.0>
0

>  <SCORE.INTRA.REPUL>
0.317323

>  <SCORE.INTRA.REPUL.0>
0.108387

>  <SCORE.INTRA.VDW>
0.959454

>  <SCORE.INTRA.VDW.0>
-2.87247

>  <SCORE.INTRA.norm>
0.040485

>  <SCORE.RESTR>
0

>  <SCORE.RESTR.CAVITY>
0

>  <SCORE.RESTR.norm>
0

>  <SCORE.SYSTEM>
-7.49991

>  <SCORE.SYSTEM.CONST>
0

>  <SCORE.SYSTEM.DIHEDRAL>
3.25795

>  <SCORE.SYSTEM.POLAR>
-2.78407

>  <SCORE.SYSTEM.REPUL>
0.00861957

>  <SCORE.SYSTEM.VDW>
0.29386

>  <SCORE.SYSTEM.norm>
-0.214283

>  <SCORE.heavy>
35

>  <SCORE.norm>
-0.832188

$$$$

  rDOCK(R)          3D
libRbt.so/2013.1/901 2013/11/27
 36 40  0  0  0  0  0  0  0  0999 V2000
   10.4566  -28.6369   -3.6502 C   0  0  0  0  0  0
   11.1666  -29.9649   -3.9418 C   0  0  0  0  0  0
    8.9562  -28.8504   -3.3812 C   0  0  0  0  0  0
    8.7470  -29.5232   -2.0814 N   0  0  0  0  0  0
    7.3106  -29.8074   -1.8847 C   0  0  0  0  0  0
    7.0922  -31.2714   -1.5515 C   0  0  0  0  0  0
    6.9749  -32.2950   -2.5395 C   0  0  0  0  0  0
    7.0284  -31.9470   -4.0095 C   0  0  0  0  0  0
    6.8405  -33.6552   -2.1335 C   0  0  0  0  0  0
    6.7357  -34.6953   -3.1217 N   0  0  0  0  0  0
    5.8230  -34.7953   -4.0447 C   0  0  0  0  0  0
    4.7697  -33.8780   -4.0926 O   0  0  0  0  0  0
    5.8868  -35.9247   -5.0049 C   0  0  0  0  0  0
    6.6165  -37.0896   -4.7228 C   0  0  0  0  0  0
    6.6651  -38.1008   -5.6281 N   0  0  0  0  0  0
    6.0052  -38.0158   -6.8132 C   0  0  0  0  0  0
    6.1141  -39.1204   -7.8104 C   0  0  0  0  0  0
    5.2902  -36.9002   -7.1099 N   0  0  0  0  0  0
    5.2139  -35.8636   -6.2364 C   0  0  0  0  0  0
    6.7373  -33.9557   -0.7613 C   0  0  0  0  0  0
    6.8274  -32.9439    0.1314 N   0  0  0  0  0  0
    6.7671  -32.9775    1.4692 C   0  0  0  0  0  0
    6.9179  -31.6776    1.9157 C   0  0  0  0  0  0
    7.0699  -30.8400    0.8624 N   0  0  0  0  0  0
    7.0062  -31.6608   -0.2086 C   0  0  0  0  0  0
    9.2724  -28.6799   -0.9866 C   0  0  0  0  0  0
   10.7808  -28.4943   -1.1507 C   0  0  0  0  0  0
   11.0735  -27.9692   -2.4915 N   0  0  0  0  0  0
   11.8464  -26.7602   -2.6406 C   0  0  0  0  0  0
   11.7683  -25.8610   -1.7578 O   0  0  0  0  0  0
   12.8036  -26.5711   -3.8018 C   0  0  0  0  0  0
   12.0634  -26.5254   -5.1415 C   0  0  0  0  0  0
   11.9301  -25.0512   -5.5264 C   0  0  0  0  0  0
   12.7017  -24.2406   -4.4894 C   0  0  0  0  0  0
   13.5349  -25.2360   -3.6987 C   0  0  0  0  0  0
    4.6767  -33.1196   -3.4299 H   0  0  0  0  0  0
  1  2  1  0  0  0
  1  3  1  0  0  0
  3  4  1  0  0  0
  4  5  1  0  0  0
  5  6  1  0  0  0
  6  7  2  0  0  0
  7  8  1  0  0  0
  7  9  1  0  0  0
  9 10  1  0  0  0
 10 11  2  0  0  0
 11 12  1  0  0  0
 11 13  1  0  0  0
 13 14  2  0  0  0
 14 15  1  0  0  0
 15 16  2  0  0  0
 16 17  1  0  0  0
 16 18  1  0  0  0
 18 19  2  0  0  0
  9 20  2  0  0  0
 20 21  1  0  0  0
 21 22  1  0  0  0
 22 23  2  0  0  0
 23 24  1  0  0  0
 24 25  2  0  0  0
  4 26  1  0  0  0
 26 27  1  0  0  0
 27 28  1  0  0  0
 28 29  1  0  0  0
 29 30  2  0  0  0
 29 31  1  0  0  0
 31 32  1  0  0  0
 32 33  1  0  0  0
 33 34  1  0  0  0
 34 35  1  0  0  0
 28  1  1  0  0  0
 35 31  1  0  0  0
 25  6  1  0  0  0
 19 13  1  0  0  0
 25 21  1  0  0  0
 12 36  1  0  0  0
M  END
>  <CHROM.0>
38.34942832,65.30837486,23.05297077,26.97194623,9.74418982,-177.82158168
-51.50142567

>  <CHROM.1>
127.19890348,-84.84217474,-58.88008755,0.01549123,20.05812051,64.94828100
8.40203685,-31.35730352,-3.11126163,-0.55879514,-0.94033073,-2.05699971

>  <Name>

>  <RI>
0

>  <Rbt.Current_Directory>
/extra/banzai2/j5wagner/CELPP/2016_10_17_rdock_implementation/normal_run/tutorialVideo/tutorial_rdock_implementation/full_week_run/4-docking/5m96/LMCSS_4wqp_docking

>  <Rbt.Executable>
rbdock ($Id: //depot/dev/client3/rdock/2013.1/src/exe/rbdock.cxx#4 $)

>  <Rbt.Library>
libRbt.so (2013.1, Build901 2013/11/27)

>  <Rbt.Parameter_File>
/home/j5wagner/env_00/source/rDock/rDock_2013.1_src//data/scripts/dock.prm

>  <Rbt.Receptor>
/extra/banzai2/j5wagner/CELPP/2016_10_17_rdock_implementation/normal_run/tutorialVideo/tutorial_rdock_implementation/full_week_run/4-docking/5m96/LMCSS_4wqp_tech_prep/rDockGridGenInput.prm

>  <SCORE>
-24.9728

>  <SCORE.INTER>
-17.6358

>  <SCORE.INTER.CONST>
1

>  <SCORE.INTER.POLAR>
0

>  <SCORE.INTER.REPUL>
0.0191517

>  <SCORE.INTER.ROT>
5

>  <SCORE.INTER.VDW>
-28.1316

>  <SCORE.INTER.norm>
-0.503881

>  <SCORE.INTRA>
0.929286

>  <SCORE.INTRA.DIHEDRAL>
0.425451

>  <SCORE.INTRA.DIHEDRAL.0>
9.74364

>  <SCORE.INTRA.POLAR>
0

>  <SCORE.INTRA.POLAR.0>
0

>  <SCORE.INTRA.REPUL>
-0.108387

>  <SCORE.INTRA.REPUL.0>
0.108387

>  <SCORE.INTRA.VDW>
1.2585

>  <SCORE.INTRA.VDW.0>
-2.87247

>  <SCORE.INTRA.norm>
0.026551

>  <SCORE.RESTR>
0

>  <SCORE.RESTR.CAVITY>
0

>  <SCORE.RESTR.norm>
0

>  <SCORE.SYSTEM>
-8.26626

>  <SCORE.SYSTEM.CONST>
0

>  <SCORE.SYSTEM.DIHEDRAL>
4.21756

>  <SCORE.SYSTEM.POLAR>
-2.78427

>  <SCORE.SYSTEM.VDW>
-0.908533

>  <SCORE.SYSTEM.norm>
-0.236179

>  <SCORE.heavy>
35

>  <SCORE.norm>
-0.713508

$$$$

  rDOCK(R)          3D
libRbt.so/2013.1/901 2013/11/27
 36 40  0  0  0  0  0  0  0  0999 V2000
    6.5585  -33.5404   -4.5296 C   0  0  0  0  0  0
    5.5036  -32.9171   -3.6069 C   0  0  0  0  0  0
    7.8513  -32.7053   -4.5480 C   0  0  0  0  0  0
    8.5661  -32.8170   -3.2586 N   0  0  0  0  0  0
    9.7506  -31.9341   -3.2592 C   0  0  0  0  0  0
    9.3364  -30.4775   -3.1642 C   0  0  0  0  0  0
   10.0027  -29.4224   -3.8574 C   0  0  0  0  0  0
   11.2121  -29.7166   -4.7152 C   0  0  0  0  0  0
    9.5017  -28.0907   -3.7646 C   0  0  0  0  0  0
   10.1580  -27.0229   -4.4708 N   0  0  0  0  0  0
   10.5942  -25.9095   -3.9561 C   0  0  0  0  0  0
   10.3712  -25.6255   -2.6060 O   0  0  0  0  0  0
   11.2782  -24.9272   -4.8329 C   0  0  0  0  0  0
   11.7324  -23.6938   -4.3414 C   0  0  0  0  0  0
   12.3441  -22.8112   -5.1727 N   0  0  0  0  0  0
   12.5404  -23.1020   -6.4857 C   0  0  0  0  0  0
   13.1718  -22.0953   -7.3882 C   0  0  0  0  0  0
   12.1122  -24.2895   -6.9862 N   0  0  0  0  0  0
   11.4946  -25.2023   -6.1933 C   0  0  0  0  0  0
    8.4077  -27.8257   -2.9181 C   0  0  0  0  0  0
    7.8310  -28.8586   -2.2631 N   0  0  0  0  0  0
    6.7897  -28.8608   -1.4203 C   0  0  0  0  0  0
    6.5886  -30.1707   -1.0260 C   0  0  0  0  0  0
    7.4998  -30.9787   -1.6186 N   0  0  0  0  0  0
    8.2395  -30.1300   -2.3652 C   0  0  0  0  0  0
    8.9563  -34.2226   -3.0184 C   0  0  0  0  0  0
    7.7079  -35.0979   -2.9090 C   0  0  0  0  0  0
    6.8674  -34.9149   -4.1004 N   0  0  0  0  0  0
    6.4671  -36.0581   -4.8840 C   0  0  0  0  0  0
    7.2363  -37.0560   -4.9636 O   0  0  0  0  0  0
    5.1117  -36.1171   -5.5624 C   0  0  0  0  0  0
    5.2077  -35.7553   -7.0472 C   0  0  0  0  0  0
    5.2137  -37.0714   -7.8265 C   0  0  0  0  0  0
    4.9891  -38.1953   -6.8195 C   0  0  0  0  0  0
    4.5414  -37.5319   -5.5274 C   0  0  0  0  0  0
    9.7964  -26.2100   -2.0136 H   0  0  0  0  0  0
  1  2  1  0  0  0
  1  3  1  0  0  0
  3  4  1  0  0  0
  4  5  1  0  0  0
  5  6  1  0  0  0
  6  7  2  0  0  0
  7  8  1  0  0  0
  7  9  1  0  0  0
  9 10  1  0  0  0
 10 11  2  0  0  0
 11 12  1  0  0  0
 11 13  1  0  0  0
 13 14  2  0  0  0
 14 15  1  0  0  0
 15 16  2  0  0  0
 16 17  1  0  0  0
 16 18  1  0  0  0
 18 19  2  0  0  0
  9 20  2  0  0  0
 20 21  1  0  0  0
 21 22  1  0  0  0
 22 23  2  0  0  0
 23 24  1  0  0  0
 24 25  2  0  0  0
  4 26  1  0  0  0
 26 27  1  0  0  0
 27 28  1  0  0  0
 28 29  1  0  0  0
 29 30  2  0  0  0
 29 31  1  0  0  0
 31 32  1  0  0  0
 32 33  1  0  0  0
 33 34  1  0  0  0
 34 35  1  0  0  0
 28  1  1  0  0  0
 35 31  1  0  0  0
 25  6  1  0  0  0
 19 13  1  0  0  0
 25 21  1  0  0  0
 12 36  1  0  0  0
M  END
>  <CHROM.0>
12.87576823,61.25151388,-2.16093055,11.04369757,9.96811155,64.22674094,-52.91730677

>  <CHROM.1>
72.01058498,-142.71151067,-125.99994865,-6.35171139,178.03545393,99.42360364
8.60296981,-30.49905849,-4.33700335,-2.68745484,1.06833497,1.06657173

>  <Name>

>  <RI>
0

>  <Rbt.Current_Directory>
/extra/banzai2/j5wagner/CELPP/2016_10_17_rdock_implementation/normal_run/tutorialVideo/tutorial_rdock_implementation/full_week_run/4-docking/5m96/LMCSS_4wqp_docking

>  <Rbt.Executable>
rbdock ($Id: //depot/dev/client3/rdock/2013.1/src/exe/rbdock.cxx#4 $)

>  <Rbt.Library>
libRbt.so (2013.1, Build901 2013/11/27)

>  <Rbt.Parameter_File>
/home/j5wagner/env_00/source/rDock/rDock_2013.1_src//data/scripts/dock.prm

>  <Rbt.Receptor>
/extra/banzai2/j5wagner/CELPP/2016_10_17_rdock_implementation/normal_run/tutorialVideo/tutorial_rdock_implementation/full_week_run/4-docking/5m96/LMCSS_4wqp_tech_prep/rDockGridGenInput.prm

>  <SCORE>
-29.3689

>  <SCORE.INTER>
-19.7992

>  <SCORE.INTER.CONST>
1

>  <SCORE.INTER.POLAR>
-0.426423

>  <SCORE.INTER.REPUL>
0

>  <SCORE.INTER.ROT>
5

>  <SCORE.INTER.VDW>
-28.7494

>  <SCORE.INTER.norm>
-0.565692

>  <SCORE.INTRA>
1.55492

>  <SCORE.INTRA.DIHEDRAL>
-1.63318

>  <SCORE.INTRA.DIHEDRAL.0>
9.74364

>  <SCORE.INTRA.POLAR>
0

>  <SCORE.INTRA.POLAR.0>
0

>  <SCORE.INTRA.REPUL>
0.275182

>  <SCORE.INTRA.REPUL.0>
0.108387

>  <SCORE.INTRA.VDW>
0.995604

>  <SCORE.INTRA.VDW.0>
-2.87247

>  <SCORE.INTRA.norm>
0.0444264

>  <SCORE.RESTR>
0.00798898

>  <SCORE.RESTR.CAVITY>
0.00798898

>  <SCORE.RESTR.norm>
0.000228256

>  <SCORE.SYSTEM>
-11.1326

>  <SCORE.SYSTEM.CONST>
0

>  <SCORE.SYSTEM.DIHEDRAL>
0.922536

>  <SCORE.SYSTEM.POLAR>
-3.46179

>  <SCORE.SYSTEM.VDW>
0.176215

>  <SCORE.SYSTEM.norm>
-0.318074

>  <SCORE.heavy>
35

>  <SCORE.norm>
-0.839111

$$$$

  rDOCK(R)          3D
libRbt.so/2013.1/901 2013/11/27
 36 40  0  0  0  0  0  0  0  0999 V2000
   12.6223  -28.1790   -1.8529 C   0  0  0  0  0  0
   11.7762  -28.2621   -0.5763 C   0  0  0  0  0  0
   11.8677  -28.7552   -3.0644 C   0  0  0  0  0  0
   10.7531  -27.8674   -3.4587 N   0  0  0  0  0  0
    9.9816  -28.4825   -4.5582 C   0  0  0  0  0  0
    8.9171  -29.4159   -4.0125 C   0  0  0  0  0  0
    8.5859  -30.6685   -4.6114 C   0  0  0  0  0  0
    9.2791  -31.1164   -5.8779 C   0  0  0  0  0  0
    7.6201  -31.5139   -3.9906 C   0  0  0  0  0  0
    7.2897  -32.7844   -4.5790 N   0  0  0  0  0  0
    7.2106  -33.9262   -3.9587 C   0  0  0  0  0  0
    7.5374  -34.0124   -2.6026 O   0  0  0  0  0  0
    6.8248  -35.1384   -4.7223 C   0  0  0  0  0  0
    6.6174  -35.0987   -6.1096 C   0  0  0  0  0  0
    6.2530  -36.2234   -6.7779 N   0  0  0  0  0  0
    6.0931  -37.4065   -6.1283 C   0  0  0  0  0  0
    5.6456  -38.6165   -6.8781 C   0  0  0  0  0  0
    6.2897  -37.4726   -4.7864 N   0  0  0  0  0  0
    6.6535  -36.3740   -4.0764 C   0  0  0  0  0  0
    6.9446  -31.0574   -2.8420 C   0  0  0  0  0  0
    7.2783  -29.8504   -2.3318 N   0  0  0  0  0  0
    6.7909  -29.2121   -1.2596 C   0  0  0  0  0  0
    7.4680  -28.0108   -1.1590 C   0  0  0  0  0  0
    8.3703  -27.9014   -2.1630 N   0  0  0  0  0  0
    8.2164  -29.0509   -2.8557 C   0  0  0  0  0  0
   11.2791  -26.5450   -3.8591 C   0  0  0  0  0  0
   11.9749  -25.8803   -2.6713 C   0  0  0  0  0  0
   12.9998  -26.7824   -2.1280 N   0  0  0  0  0  0
   14.3618  -26.3274   -1.9894 C   0  0  0  0  0  0
   14.8214  -25.4856   -2.8103 O   0  0  0  0  0  0
   15.2365  -26.7874   -0.8387 C   0  0  0  0  0  0
   15.6989  -28.2353   -1.0253 C   0  0  0  0  0  0
   17.1274  -28.1796   -1.5690 C   0  0  0  0  0  0
   17.5523  -26.7144   -1.5777 C   0  0  0  0  0  0
   16.5169  -25.9616   -0.7582 C   0  0  0  0  0  0
    7.8652  -33.2180   -2.0692 H   0  0  0  0  0  0
  1  2  1  0  0  0
  1  3  1  0  0  0
  3  4  1  0  0  0
  4  5  1  0  0  0
  5  6  1  0  0  0
  6  7  2  0  0  0
  7  8  1  0  0  0
  7  9  1  0  0  0
  9 10  1  0  0  0
 10 11  2  0  0  0
 11 12  1  0  0  0
 11 13  1  0  0  0
 13 14  2  0  0  0
 14 15  1  0  0  0
 15 16  2  0  0  0
 16 17  1  0  0  0
 16 18  1  0  0  0
 18 19  2  0  0  0
  9 20  2  0  0  0
 20 21  1  0  0  0
 21 22  1  0  0  0
 22 23  2  0  0  0
 23 24  1  0  0  0
 24 25  2  0  0  0
  4 26  1  0  0  0
 26 27  1  0  0  0
 27 28  1  0  0  0
 28 29  1  0  0  0
 29 30  2  0  0  0
 29 31  1  0  0  0
 31 32  1  0  0  0
 32 33  1  0  0  0
 33 34  1  0  0  0
 34 35  1  0  0  0
 28  1  1  0  0  0
 35 31  1  0  0  0
 25  6  1  0  0  0
 19 13  1  0  0  0
 25 21  1  0  0  0
 12 36  1  0  0  0
M  END
>  <CHROM.0>
15.94464353,60.02227327,7.26780591,-120.21615196,-169.24448460,63.85505080
-52.76776629

>  <CHROM.1>
86.22124671,-140.65911156,132.57962081,-1.75390714,3.67595276,74.12597656
10.07998964,-30.34644342,-3.25458550,-0.86105183,0.03241365,-2.80191032

>  <Name>

>  <RI>
0

>  <Rbt.Current_Directory>
/extra/banzai2/j5wagner/CELPP/2016_10_17_rdock_implementation/normal_run/tutorialVideo/tutorial_rdock_implementation/full_week_run/4-docking/5m96/LMCSS_4wqp_docking

>  <Rbt.Executable>
rbdock ($Id: //depot/dev/client3/rdock/2013.1/src/exe/rbdock.cxx#4 $)

>  <Rbt.Library>
libRbt.so (2013.1, Build901 2013/11/27)

>  <Rbt.Parameter_File>
/home/j5wagner/env_00/source/rDock/rDock_2013.1_src//data/scripts/dock.prm

>  <Rbt.Receptor>
/extra/banzai2/j5wagner/CELPP/2016_10_17_rdock_implementation/normal_run/tutorialVideo/tutorial_rdock_implementation/full_week_run/4-docking/5m96/LMCSS_4wqp_tech_prep/rDockGridGenInput.prm

>  <SCORE>
-24.3916

>  <SCORE.INTER>
-17.4266

>  <SCORE.INTER.CONST>
1

>  <SCORE.INTER.POLAR>
0

>  <SCORE.INTER.REPUL>
0.0841084

>  <SCORE.INTER.ROT>
5

>  <SCORE.INTER.VDW>
-28.2471

>  <SCORE.INTER.norm>
-0.497903

>  <SCORE.INTRA>
0.265492

>  <SCORE.INTRA.DIHEDRAL>
-3.34916

>  <SCORE.INTRA.DIHEDRAL.0>
9.74364

>  <SCORE.INTRA.POLAR>
0

>  <SCORE.INTRA.POLAR.0>
0

>  <SCORE.INTRA.REPUL>
0.250766

>  <SCORE.INTRA.REPUL.0>
0.108387

>  <SCORE.INTRA.VDW>
0.686238

>  <SCORE.INTRA.VDW.0>
-2.87247

>  <SCORE.INTRA.norm>
0.00758549

>  <SCORE.RESTR>
0

>  <SCORE.RESTR.CAVITY>
0

>  <SCORE.RESTR.norm>
0

>  <SCORE.SYSTEM>
-7.2305

>  <SCORE.SYSTEM.CONST>
0

>  <SCORE.SYSTEM.DIHEDRAL>
4.50417

>  <SCORE.SYSTEM.POLAR>
-2.68486

>  <SCORE.SYSTEM.VDW>
-0.354073

>  <SCORE.SYSTEM.norm>
-0.206586

>  <SCORE.heavy>
35

>  <SCORE.norm>
-0.696903

$$$$

  rDOCK(R)          3D
libRbt.so/2013.1/901 2013/11/27
 36 40  0  0  0  0  0  0  0  0999 V2000
    6.4982  -33.7481   -4.5887 C   0  0  0  0  0  0
    5.4197  -33.0314   -3.7666 C   0  0  0  0  0  0
    7.8134  -32.9487   -4.6065 C   0  0  0  0  0  0
    8.4645  -32.9806   -3.2795 N   0  0  0  0  0  0
    9.6721  -32.1295   -3.2883 C   0  0  0  0  0  0
    9.2981  -30.6632   -3.1786 C   0  0  0  0  0  0
    9.9473  -29.6276   -3.9159 C   0  0  0  0  0  0
   11.0977  -29.9545   -4.8405 C   0  0  0  0  0  0
    9.4837  -28.2840   -3.8027 C   0  0  0  0  0  0
   10.1225  -27.2355   -4.5524 N   0  0  0  0  0  0
    9.9036  -25.9575   -4.4346 C   0  0  0  0  0  0
    8.9118  -25.4924   -3.5666 O   0  0  0  0  0  0
   10.6799  -25.0110   -5.2729 C   0  0  0  0  0  0
   11.6682  -25.4574   -6.1634 C   0  0  0  0  0  0
   12.3699  -24.5644   -6.9081 N   0  0  0  0  0  0
   12.1270  -23.2301   -6.8192 C   0  0  0  0  0  0
   12.9449  -22.2668   -7.6127 C   0  0  0  0  0  0
   11.1746  -22.7721   -5.9666 N   0  0  0  0  0  0
   10.4489  -23.6273   -5.2015 C   0  0  0  0  0  0
    8.4472  -27.9890   -2.8958 C   0  0  0  0  0  0
    7.8856  -29.0048   -2.2020 N   0  0  0  0  0  0
    6.8952  -28.9783   -1.3003 C   0  0  0  0  0  0
    6.6870  -30.2811   -0.8867 C   0  0  0  0  0  0
    7.5432  -31.1132   -1.5260 N   0  0  0  0  0  0
    8.2578  -30.2860   -2.3196 C   0  0  0  0  0  0
    8.8036  -34.3733   -2.9174 C   0  0  0  0  0  0
    7.5273  -35.2070   -2.8039 C   0  0  0  0  0  0
    6.7483  -35.0936   -4.0447 N   0  0  0  0  0  0
    6.3527  -36.2823   -4.7600 C   0  0  0  0  0  0
    7.0965  -37.3019   -4.7284 O   0  0  0  0  0  0
    5.0290  -36.3589   -5.4966 C   0  0  0  0  0  0
    5.1371  -35.7850   -6.9122 C   0  0  0  0  0  0
    5.2837  -36.9732   -7.8641 C   0  0  0  0  0  0
    5.1298  -38.2424   -7.0317 C   0  0  0  0  0  0
    4.5861  -37.8073   -5.6807 C   0  0  0  0  0  0
    8.7220  -24.5079   -3.4332 H   0  0  0  0  0  0
  1  2  1  0  0  0
  1  3  1  0  0  0
  3  4  1  0  0  0
  4  5  1  0  0  0
  5  6  1  0  0  0
  6  7  2  0  0  0
  7  8  1  0  0  0
  7  9  1  0  0  0
  9 10  1  0  0  0
 10 11  2  0  0  0
 11 12  1  0  0  0
 11 13  1  0  0  0
 13 14  2  0  0  0
 14 15  1  0  0  0
 15 16  2  0  0  0
 16 17  1  0  0  0
 16 18  1  0  0  0
 18 19  2  0  0  0
  9 20  2  0  0  0
 20 21  1  0  0  0
 21 22  1  0  0  0
 22 23  2  0  0  0
 23 24  1  0  0  0
 24 25  2  0  0  0
  4 26  1  0  0  0
 26 27  1  0  0  0
 27 28  1  0  0  0
 28 29  1  0  0  0
 29 30  2  0  0  0
 29 31  1  0  0  0
 31 32  1  0  0  0
 32 33  1  0  0  0
 33 34  1  0  0  0
 34 35  1  0  0  0
 28  1  1  0  0  0
 35 31  1  0  0  0
 25  6  1  0  0  0
 19 13  1  0  0  0
 25 21  1  0  0  0
 12 36  1  0  0  0
M  END
>  <CHROM.0>
9.81502598,61.91717766,6.90122633,14.31601290,8.82733517,64.23798779,-53.35148370

>  <CHROM.1>
77.78068746,-139.96093488,-171.85108699,178.83070738,-1.70055056,85.51555267
8.41825727,-30.63452978,-4.44784316,-2.71681409,1.11674512,1.07135290

>  <Name>

>  <RI>
0

>  <Rbt.Current_Directory>
/extra/banzai2/j5wagner/CELPP/2016_10_17_rdock_implementation/normal_run/tutorialVideo/tutorial_rdock_implementation/full_week_run/4-docking/5m96/LMCSS_4wqp_docking

>  <Rbt.Executable>
rbdock ($Id: //depot/dev/client3/rdock/2013.1/src/exe/rbdock.cxx#4 $)

>  <Rbt.Library>
libRbt.so (2013.1, Build901 2013/11/27)

>  <Rbt.Parameter_File>
/home/j5wagner/env_00/source/rDock/rDock_2013.1_src//data/scripts/dock.prm

>  <Rbt.Receptor>
/extra/banzai2/j5wagner/CELPP/2016_10_17_rdock_implementation/normal_run/tutorialVideo/tutorial_rdock_implementation/full_week_run/4-docking/5m96/LMCSS_4wqp_tech_prep/rDockGridGenInput.prm

>  <SCORE>
-31.314

>  <SCORE.INTER>
-19.4571

>  <SCORE.INTER.CONST>
1

>  <SCORE.INTER.POLAR>
0

>  <SCORE.INTER.REPUL>
0.000454506

>  <SCORE.INTER.ROT>
5

>  <SCORE.INTER.VDW>
-29.8594

>  <SCORE.INTER.norm>
-0.555918

>  <SCORE.INTRA>
-0.680477

>  <SCORE.INTRA.DIHEDRAL>
-6.80898

>  <SCORE.INTRA.DIHEDRAL.0>
9.74364

>  <SCORE.INTRA.POLAR>
0

>  <SCORE.INTRA.POLAR.0>
0

>  <SCORE.INTRA.REPUL>
0.242442

>  <SCORE.INTRA.REPUL.0>
0.108387

>  <SCORE.INTRA.VDW>
1.5118

>  <SCORE.INTRA.VDW.0>
-2.87247

>  <SCORE.INTRA.norm>
-0.0194422

>  <SCORE.RESTR>
0

>  <SCORE.RESTR.CAVITY>
0

>  <SCORE.RESTR.norm>
0

>  <SCORE.SYSTEM>
-11.1764

>  <SCORE.SYSTEM.CONST>
0

>  <SCORE.SYSTEM.DIHEDRAL>
0.948364

>  <SCORE.SYSTEM.POLAR>
-3.46024

>  <SCORE.SYSTEM.VDW>
0.114202

>  <SCORE.SYSTEM.norm>
-0.319327

>  <SCORE.heavy>
35

>  <SCORE.norm>
-0.894687

$$$$

  rDOCK(R)          3D
libRbt.so/2013.1/901 2013/11/27
 36 40  0  0  0  0  0  0  0  0999 V2000
    6.7003  -33.2453   -4.5792 C   0  0  0  0  0  0
    5.6821  -32.6087   -3.6250 C   0  0  0  0  0  0
    7.9918  -32.4116   -4.6588 C   0  0  0  0  0  0
    8.7558  -32.5067   -3.3966 N   0  0  0  0  0  0
    9.9398  -31.6249   -3.4548 C   0  0  0  0  0  0
    9.5401  -30.1736   -3.2639 C   0  0  0  0  0  0
   10.2296  -29.0807   -3.8702 C   0  0  0  0  0  0
   11.4499  -29.3285   -4.7271 C   0  0  0  0  0  0
    9.7418  -27.7528   -3.6918 C   0  0  0  0  0  0
   10.4216  -26.6460   -4.3103 N   0  0  0  0  0  0
    9.8637  -25.6088   -4.8651 C   0  0  0  0  0  0
    8.4722  -25.5330   -4.9710 O   0  0  0  0  0  0
   10.7247  -24.5410   -5.4305 C   0  0  0  0  0  0
   10.1785  -23.4080   -6.0526 C   0  0  0  0  0  0
   10.9942  -22.4539   -6.5711 N   0  0  0  0  0  0
   12.3463  -22.5654   -6.4908 C   0  0  0  0  0  0
   13.2202  -21.5270   -7.1108 C   0  0  0  0  0  0
   12.9004  -23.6510   -5.8921 N   0  0  0  0  0  0
   12.1248  -24.6305   -5.3607 C   0  0  0  0  0  0
    8.6367  -27.5346   -2.8463 C   0  0  0  0  0  0
    8.0377  -28.6039   -2.2751 N   0  0  0  0  0  0
    6.9824  -28.6527   -1.4514 C   0  0  0  0  0  0
    6.7603  -29.9846   -1.1537 C   0  0  0  0  0  0
    7.6723  -30.7599   -1.7871 N   0  0  0  0  0  0
    8.4338  -29.8699   -2.4601 C   0  0  0  0  0  0
    9.1545  -33.9093   -3.1528 C   0  0  0  0  0  0
    7.9109  -34.7819   -2.9835 C   0  0  0  0  0  0
    7.0251  -34.6141   -4.1439 N   0  0  0  0  0  0
    6.5944  -35.7674   -4.8961 C   0  0  0  0  0  0
    7.3596  -36.7669   -4.9918 O   0  0  0  0  0  0
    5.2138  -35.8342   -5.5207 C   0  0  0  0  0  0
    5.2628  -35.5669   -7.0277 C   0  0  0  0  0  0
    5.2101  -36.9282   -7.7231 C   0  0  0  0  0  0
    4.9976  -37.9822   -6.6407 C   0  0  0  0  0  0
    4.6133  -37.2295   -5.3773 C   0  0  0  0  0  0
    7.8611  -26.2818   -4.6729 H   0  0  0  0  0  0
  1  2  1  0  0  0
  1  3  1  0  0  0
  3  4  1  0  0  0
  4  5  1  0  0  0
  5  6  1  0  0  0
  6  7  2  0  0  0
  7  8  1  0  0  0
  7  9  1  0  0  0
  9 10  1  0  0  0
 10 11  2  0  0  0
 11 12  1  0  0  0
 11 13  1  0  0  0
 13 14  2  0  0  0
 14 15  1  0  0  0
 15 16  2  0  0  0
 16 17  1  0  0  0
 16 18  1  0  0  0
 18 19  2  0  0  0
  9 20  2  0  0  0
 20 21  1  0  0  0
 21 22  1  0  0  0
 22 23  2  0  0  0
 23 24  1  0  0  0
 24 25  2  0  0  0
  4 26  1  0  0  0
 26 27  1  0  0  0
 27 28  1  0  0  0
 28 29  1  0  0  0
 29 30  2  0  0  0
 29 31  1  0  0  0
 31 32  1  0  0  0
 32 33  1  0  0  0
 33 34  1  0  0  0
 34 35  1  0  0  0
 28  1  1  0  0  0
 35 31  1  0  0  0
 25  6  1  0  0  0
 19 13  1  0  0  0
 25 21  1  0  0  0
 12 36  1  0  0  0
M  END
>  <CHROM.0>
29.30662224,61.07720233,-168.00591671,6.29410789,9.37255567,64.93569542,-53.40408985

>  <CHROM.1>
76.06062200,-148.52316207,140.55301943,-3.19431079,179.30844868,102.50706140
8.57725929,-30.18498229,-4.50062805,-2.86627600,1.14130283,1.23591379

>  <Name>

>  <RI>
0

>  <Rbt.Current_Directory>
/extra/banzai2/j5wagner/CELPP/2016_10_17_rdock_implementation/normal_run/tutorialVideo/tutorial_rdock_implementation/full_week_run/4-docking/5m96/LMCSS_4wqp_docking

>  <Rbt.Executable>
rbdock ($Id: //depot/dev/client3/rdock/2013.1/src/exe/rbdock.cxx#4 $)

>  <Rbt.Library>
libRbt.so (2013.1, Build901 2013/11/27)

>  <Rbt.Parameter_File>
/home/j5wagner/env_00/source/rDock/rDock_2013.1_src//data/scripts/dock.prm

>  <Rbt.Receptor>
/extra/banzai2/j5wagner/CELPP/2016_10_17_rdock_implementation/normal_run/tutorialVideo/tutorial_rdock_implementation/full_week_run/4-docking/5m96/LMCSS_4wqp_tech_prep/rDockGridGenInput.prm

>  <SCORE>
-32.5448

>  <SCORE.INTER>
-22.9668

>  <SCORE.INTER.CONST>
1

>  <SCORE.INTER.POLAR>
-0.993556

>  <SCORE.INTER.REPUL>
0

>  <SCORE.INTER.ROT>
5

>  <SCORE.INTER.VDW>
-29.9887

>  <SCORE.INTER.norm>
-0.656195

>  <SCORE.INTRA>
1.324

>  <SCORE.INTRA.DIHEDRAL>
-2.69661

>  <SCORE.INTRA.DIHEDRAL.0>
9.74364

>  <SCORE.INTRA.POLAR>
0

>  <SCORE.INTRA.POLAR.0>
0

>  <SCORE.INTRA.REPUL>
0.343173

>  <SCORE.INTRA.REPUL.0>
0.108387

>  <SCORE.INTRA.VDW>
0.956439

>  <SCORE.INTRA.VDW.0>
-2.87247

>  <SCORE.INTRA.norm>
0.0378286

>  <SCORE.RESTR>
0.0074681

>  <SCORE.RESTR.CAVITY>
0.0074681

>  <SCORE.RESTR.norm>
0.000213374

>  <SCORE.SYSTEM>
-10.9095

>  <SCORE.SYSTEM.CONST>
0

>  <SCORE.SYSTEM.DIHEDRAL>
1.91423

>  <SCORE.SYSTEM.POLAR>
-3.46378

>  <SCORE.SYSTEM.VDW>
-0.0897303

>  <SCORE.SYSTEM.norm>
-0.311699

>  <SCORE.heavy>
35

>  <SCORE.norm>
-0.929852

$$$$

  rDOCK(R)          3D
libRbt.so/2013.1/901 2013/11/27
 36 40  0  0  0  0  0  0  0  0999 V2000
    6.3197  -33.3881   -4.5073 C   0  0  0  0  0  0
    5.5346  -32.9124   -3.2785 C   0  0  0  0  0  0
    7.3352  -32.3276   -4.9690 C   0  0  0  0  0  0
    8.4492  -32.2129   -4.0038 N   0  0  0  0  0  0
    9.3615  -31.1247   -4.4117 C   0  0  0  0  0  0
    9.6484  -30.1972   -3.2456 C   0  0  0  0  0  0
   10.9658  -29.8296   -2.8375 C   0  0  0  0  0  0
   12.1722  -30.3966   -3.5503 C   0  0  0  0  0  0
   11.1401  -28.8966   -1.7734 C   0  0  0  0  0  0
   12.4637  -28.5091   -1.3641 N   0  0  0  0  0  0
   12.8317  -27.3293   -0.9549 C   0  0  0  0  0  0
   11.9207  -26.2694   -0.9584 O   0  0  0  0  0  0
   14.2402  -27.1149   -0.5406 C   0  0  0  0  0  0
   14.6499  -25.9284    0.0867 C   0  0  0  0  0  0
   15.9493  -25.7580    0.4428 N   0  0  0  0  0  0
   16.8741  -26.7272    0.2136 C   0  0  0  0  0  0
   18.3042  -26.4956    0.5709 C   0  0  0  0  0  0
   16.5034  -27.8856   -0.3901 N   0  0  0  0  0  0
   15.2161  -28.1001   -0.7647 C   0  0  0  0  0  0
   10.0075  -28.4205   -1.0847 C   0  0  0  0  0  0
    8.7836  -28.8227   -1.4957 N   0  0  0  0  0  0
    7.5743  -28.5071   -1.0135 C   0  0  0  0  0  0
    6.6418  -29.1748   -1.7857 C   0  0  0  0  0  0
    7.2666  -29.9024   -2.7418 N   0  0  0  0  0  0
    8.5768  -29.6562   -2.5235 C   0  0  0  0  0  0
    9.1714  -33.4997   -3.9119 C   0  0  0  0  0  0
    8.2354  -34.5849   -3.3799 C   0  0  0  0  0  0
    7.0244  -34.6466   -4.2100 N   0  0  0  0  0  0
    6.6220  -35.8963   -4.8079 C   0  0  0  0  0  0
    7.5033  -36.7343   -5.1467 O   0  0  0  0  0  0
    5.1586  -36.2565   -4.9792 C   0  0  0  0  0  0
    4.7804  -36.3935   -6.4568 C   0  0  0  0  0  0
    4.7775  -37.8887   -6.7787 C   0  0  0  0  0  0
    5.0213  -38.6345   -5.4702 C   0  0  0  0  0  0
    4.8510  -37.6148   -4.3560 C   0  0  0  0  0  0
   10.9968  -26.3460   -1.3627 H   0  0  0  0  0  0
  1  2  1  0  0  0
  1  3  1  0  0  0
  3  4  1  0  0  0
  4  5  1  0  0  0
  5  6  1  0  0  0
  6  7  2  0  0  0
  7  8  1  0  0  0
  7  9  1  0  0  0
  9 10  1  0  0  0
 10 11  2  0  0  0
 11 12  1  0  0  0
 11 13  1  0  0  0
 13 14  2  0  0  0
 14 15  1  0  0  0
 15 16  2  0  0  0
 16 17  1  0  0  0
 16 18  1  0  0  0
 18 19  2  0  0  0
  9 20  2  0  0  0
 20 21  1  0  0  0
 21 22  1  0  0  0
 22 23  2  0  0  0
 23 24  1  0  0  0
 24 25  2  0  0  0
  4 26  1  0  0  0
 26 27  1  0  0  0
 27 28  1  0  0  0
 28 29  1  0  0  0
 29 30  2  0  0  0
 29 31  1  0  0  0
 31 32  1  0  0  0
 32 33  1  0  0  0
 33 34  1  0  0  0
 34 35  1  0  0  0
 28  1  1  0  0  0
 35 31  1  0  0  0
 25  6  1  0  0  0
 19 13  1  0  0  0
 25 21  1  0  0  0
 12 36  1  0  0  0
M  END
>  <CHROM.0>
28.06525480,63.61896715,1.30288808,21.68882773,8.47505882,178.91961140,-53.72975229

>  <CHROM.1>
130.46994653,128.45507462,144.17342075,-6.82856178,-170.70036457,116.51703673
9.73578541,-31.14515491,-2.78381761,2.29686155,0.10285636,-2.75275110

>  <Name>

>  <RI>
0

>  <Rbt.Current_Directory>
/extra/banzai2/j5wagner/CELPP/2016_10_17_rdock_implementation/normal_run/tutorialVideo/tutorial_rdock_implementation/full_week_run/4-docking/5m96/LMCSS_4wqp_docking

>  <Rbt.Executable>
rbdock ($Id: //depot/dev/client3/rdock/2013.1/src/exe/rbdock.cxx#4 $)

>  <Rbt.Library>
libRbt.so (2013.1, Build901 2013/11/27)

>  <Rbt.Parameter_File>
/home/j5wagner/env_00/source/rDock/rDock_2013.1_src//data/scripts/dock.prm

>  <Rbt.Receptor>
/extra/banzai2/j5wagner/CELPP/2016_10_17_rdock_implementation/normal_run/tutorialVideo/tutorial_rdock_implementation/full_week_run/4-docking/5m96/LMCSS_4wqp_tech_prep/rDockGridGenInput.prm

>  <SCORE>
-24.4888

>  <SCORE.INTER>
-16.5979

>  <SCORE.INTER.CONST>
1

>  <SCORE.INTER.POLAR>
0

>  <SCORE.INTER.REPUL>
0

>  <SCORE.INTER.ROT>
5

>  <SCORE.INTER.VDW>
-26.9979

>  <SCORE.INTER.norm>
-0.474227

>  <SCORE.INTRA>
0.843431

>  <SCORE.INTRA.DIHEDRAL>
0.192511

>  <SCORE.INTRA.DIHEDRAL.0>
9.74364

>  <SCORE.INTRA.POLAR>
0

>  <SCORE.INTRA.POLAR.0>
0

>  <SCORE.INTRA.REPUL>
0.0224972

>  <SCORE.INTRA.REPUL.0>
0.108387

>  <SCORE.INTRA.VDW>
0.634689

>  <SCORE.INTRA.VDW.0>
-2.87247

>  <SCORE.INTRA.norm>
0.024098

>  <SCORE.RESTR>
0

>  <SCORE.RESTR.CAVITY>
0

>  <SCORE.RESTR.norm>
0

>  <SCORE.SYSTEM>
-8.73434

>  <SCORE.SYSTEM.CONST>
0

>  <SCORE.SYSTEM.DIHEDRAL>
2.08688

>  <SCORE.SYSTEM.POLAR>
-2.78015

>  <SCORE.SYSTEM.VDW>
-0.325283

>  <SCORE.SYSTEM.norm>
-0.249553

>  <SCORE.heavy>
35

>  <SCORE.norm>
-0.699681

$$$$

  rDOCK(R)          3D
libRbt.so/2013.1/901 2013/11/27
 36 40  0  0  0  0  0  0  0  0999 V2000
   11.7058  -25.5017   -4.1126 C   0  0  0  0  0  0
   12.3692  -25.5961   -2.7330 C   0  0  0  0  0  0
   11.5727  -26.8885   -4.7671 C   0  0  0  0  0  0
   10.5553  -27.7025   -4.0684 N   0  0  0  0  0  0
   10.5105  -29.0611   -4.6470 C   0  0  0  0  0  0
    9.5487  -29.9441   -3.8739 C   0  0  0  0  0  0
    8.8489  -31.0440   -4.4552 C   0  0  0  0  0  0
    9.0136  -31.3639   -5.9233 C   0  0  0  0  0  0
    8.0173  -31.8631   -3.6363 C   0  0  0  0  0  0
    7.3188  -32.9823   -4.2099 N   0  0  0  0  0  0
    7.0878  -34.1267   -3.6339 C   0  0  0  0  0  0
    7.6036  -34.3890   -2.3618 O   0  0  0  0  0  0
    6.3206  -35.1632   -4.3677 C   0  0  0  0  0  0
    5.7348  -34.8994   -5.6152 C   0  0  0  0  0  0
    5.0283  -35.8663   -6.2558 N   0  0  0  0  0  0
    4.8823  -37.1049   -5.7159 C   0  0  0  0  0  0
    4.0609  -38.1343   -6.4176 C   0  0  0  0  0  0
    5.4408  -37.3869   -4.5108 N   0  0  0  0  0  0
    6.1547  -36.4516   -3.8331 C   0  0  0  0  0  0
    7.8321  -31.5183   -2.2833 C   0  0  0  0  0  0
    8.4983  -30.4496   -1.7906 N   0  0  0  0  0  0
    8.4922  -29.9354   -0.5536 C   0  0  0  0  0  0
    9.3446  -28.8469   -0.5617 C   0  0  0  0  0  0
    9.8771  -28.6837   -1.7962 N   0  0  0  0  0  0
    9.3283  -29.6875   -2.5145 C   0  0  0  0  0  0
    9.2338  -27.0462   -4.1607 C   0  0  0  0  0  0
    9.2756  -25.6905   -3.4558 C   0  0  0  0  0  0
   10.3748  -24.8815   -4.0004 N   0  0  0  0  0  0
   10.1116  -23.5608   -4.5178 C   0  0  0  0  0  0
    8.9966  -23.3165   -5.0571 O   0  0  0  0  0  0
   11.1199  -22.4374   -4.3697 C   0  0  0  0  0  0
   12.2186  -22.5217   -5.4330 C   0  0  0  0  0  0
   11.8553  -21.5186   -6.5290 C   0  0  0  0  0  0
   10.6238  -20.7539   -6.0532 C   0  0  0  0  0  0
   10.4607  -21.0771   -4.5770 C   0  0  0  0  0  0
    7.4688  -35.2738   -1.8906 H   0  0  0  0  0  0
  1  2  1  0  0  0
  1  3  1  0  0  0
  3  4  1  0  0  0
  4  5  1  0  0  0
  5  6  1  0  0  0
  6  7  2  0  0  0
  7  8  1  0  0  0
  7  9  1  0  0  0
  9 10  1  0  0  0
 10 11  2  0  0  0
 11 12  1  0  0  0
 11 13  1  0  0  0
 13 14  2  0  0  0
 14 15  1  0  0  0
 15 16  2  0  0  0
 16 17  1  0  0  0
 16 18  1  0  0  0
 18 19  2  0  0  0
  9 20  2  0  0  0
 20 21  1  0  0  0
 21 22  1  0  0  0
 22 23  2  0  0  0
 23 24  1  0  0  0
 24 25  2  0  0  0
  4 26  1  0  0  0
 26 27  1  0  0  0
 27 28  1  0  0  0
 28 29  1  0  0  0
 29 30  2  0  0  0
 29 31  1  0  0  0
 31 32  1  0  0  0
 32 33  1  0  0  0
 33 34  1  0  0  0
 34 35  1  0  0  0
 28  1  1  0  0  0
 35 31  1  0  0  0
 25  6  1  0  0  0
 19 13  1  0  0  0
 25 21  1  0  0  0
 12 36  1  0  0  0
M  END
>  <CHROM.0>
3.52564893,62.10189944,9.14815540,11.83252687,9.79451137,65.66927830,175.11516429

>  <CHROM.1>
175.63072877,151.80480799,144.24164704,-178.27552581,-5.87734788,80.97062240
8.86210410,-29.29334157,-4.09314178,-0.65352186,1.08423535,2.27985175

>  <Name>

>  <RI>
0

>  <Rbt.Current_Directory>
/extra/banzai2/j5wagner/CELPP/2016_10_17_rdock_implementation/normal_run/tutorialVideo/tutorial_rdock_implementation/full_week_run/4-docking/5m96/LMCSS_4wqp_docking

>  <Rbt.Executable>
rbdock ($Id: //depot/dev/client3/rdock/2013.1/src/exe/rbdock.cxx#4 $)

>  <Rbt.Library>
libRbt.so (2013.1, Build901 2013/11/27)

>  <Rbt.Parameter_File>
/home/j5wagner/env_00/source/rDock/rDock_2013.1_src//data/scripts/dock.prm

>  <Rbt.Receptor>
/extra/banzai2/j5wagner/CELPP/2016_10_17_rdock_implementation/normal_run/tutorialVideo/tutorial_rdock_implementation/full_week_run/4-docking/5m96/LMCSS_4wqp_tech_prep/rDockGridGenInput.prm

>  <SCORE>
-20.5806

>  <SCORE.INTER>
-13.9065

>  <SCORE.INTER.CONST>
1

>  <SCORE.INTER.POLAR>
-0.488027

>  <SCORE.INTER.REPUL>
0

>  <SCORE.INTER.ROT>
5

>  <SCORE.INTER.VDW>
-22.6472

>  <SCORE.INTER.norm>
-0.397328

>  <SCORE.INTRA>
0.720213

>  <SCORE.INTRA.DIHEDRAL>
-5.30683

>  <SCORE.INTRA.DIHEDRAL.0>
9.74364

>  <SCORE.INTRA.POLAR>
0

>  <SCORE.INTRA.POLAR.0>
0

>  <SCORE.INTRA.REPUL>
0.318898

>  <SCORE.INTRA.REPUL.0>
0.108387

>  <SCORE.INTRA.VDW>
1.77914

>  <SCORE.INTRA.VDW.0>
-2.87247

>  <SCORE.INTRA.norm>
0.0205775

>  <SCORE.RESTR>
0

>  <SCORE.RESTR.CAVITY>
0

>  <SCORE.RESTR.norm>
0

>  <SCORE.SYSTEM>
-7.39434

>  <SCORE.SYSTEM.CONST>
0

>  <SCORE.SYSTEM.DIHEDRAL>
0.792098

>  <SCORE.SYSTEM.POLAR>
-2.33013

>  <SCORE.SYSTEM.VDW>
0.132058

>  <SCORE.SYSTEM.norm>
-0.211267

>  <SCORE.heavy>
35

>  <SCORE.norm>
-0.588017

$$$$

  rDOCK(R)          3D
libRbt.so/2013.1/901 2013/11/27
 36 40  0  0  0  0  0  0  0  0999 V2000
   10.3930  -28.5969   -3.5937 C   0  0  0  0  0  0
   11.2027  -29.8980   -3.6557 C   0  0  0  0  0  0
    8.8927  -28.8788   -3.3968 C   0  0  0  0  0  0
    8.6294  -29.3888   -2.0343 N   0  0  0  0  0  0
    7.2025  -29.7456   -1.8951 C   0  0  0  0  0  0
    7.0451  -31.2207   -1.5761 C   0  0  0  0  0  0
    6.9421  -32.2356   -2.5745 C   0  0  0  0  0  0
    6.9488  -31.8680   -4.0407 C   0  0  0  0  0  0
    6.8665  -33.6047   -2.1834 C   0  0  0  0  0  0
    6.7765  -34.6358   -3.1825 N   0  0  0  0  0  0
    5.8121  -34.7971   -4.0420 C   0  0  0  0  0  0
    4.6874  -33.9685   -3.9987 O   0  0  0  0  0  0
    5.8989  -35.9037   -5.0266 C   0  0  0  0  0  0
    5.1072  -35.9215   -6.1849 C   0  0  0  0  0  0
    5.2016  -36.9552   -7.0606 N   0  0  0  0  0  0
    6.0652  -37.9823   -6.8454 C   0  0  0  0  0  0
    6.1149  -39.1294   -7.7984 C   0  0  0  0  0  0
    6.8442  -37.9884   -5.7332 N   0  0  0  0  0  0
    6.7832  -36.9772   -4.8293 C   0  0  0  0  0  0
    6.8062  -33.9255   -0.8133 C   0  0  0  0  0  0
    6.8802  -32.9222    0.0903 N   0  0  0  0  0  0
    6.8523  -32.9743    1.4286 C   0  0  0  0  0  0
    6.9662  -31.6754    1.8885 C   0  0  0  0  0  0
    7.0632  -30.8199    0.8431 N   0  0  0  0  0  0
    7.0045  -31.6294   -0.2368 C   0  0  0  0  0  0
    9.0194  -28.3744   -1.0320 C   0  0  0  0  0  0
   10.5216  -28.1057   -1.1208 C   0  0  0  0  0  0
   10.8801  -27.7413   -2.4985 N   0  0  0  0  0  0
   11.5863  -26.5106   -2.7592 C   0  0  0  0  0  0
   11.3880  -25.5115   -2.0135 O   0  0  0  0  0  0
   12.6136  -26.4080   -3.8705 C   0  0  0  0  0  0
   11.9564  -26.4581   -5.2527 C   0  0  0  0  0  0
   11.8562  -25.0153   -5.7504 C   0  0  0  0  0  0
   12.5683  -24.1332   -4.7294 C   0  0  0  0  0  0
   13.3456  -25.0703   -3.8195 C   0  0  0  0  0  0
    4.5658  -33.2507   -3.2966 H   0  0  0  0  0  0
  1  2  1  0  0  0
  1  3  1  0  0  0
  3  4  1  0  0  0
  4  5  1  0  0  0
  5  6  1  0  0  0
  6  7  2  0  0  0
  7  8  1  0  0  0
  7  9  1  0  0  0
  9 10  1  0  0  0
 10 11  2  0  0  0
 11 12  1  0  0  0
 11 13  1  0  0  0
 13 14  2  0  0  0
 14 15  1  0  0  0
 15 16  2  0  0  0
 16 17  1  0  0  0
 16 18  1  0  0  0
 18 19  2  0  0  0
  9 20  2  0  0  0
 20 21  1  0  0  0
 21 22  1  0  0  0
 22 23  2  0  0  0
 23 24  1  0  0  0
 24 25  2  0  0  0
  4 26  1  0  0  0
 26 27  1  0  0  0
 27 28  1  0  0  0
 28 29  1  0  0  0
 29 30  2  0  0  0
 29 31  1  0  0  0
 31 32  1  0  0  0
 32 33  1  0  0  0
 33 34  1  0  0  0
 34 35  1  0  0  0
 28  1  1  0  0  0
 35 31  1  0  0  0
 25  6  1  0  0  0
 19 13  1  0  0  0
 25 21  1  0  0  0
 12 36  1  0  0  0
M  END
>  <CHROM.0>
34.76127343,-46.87489854,16.47619502,23.79988773,11.11065434,-177.96308507
-52.51296480

>  <CHROM.1>
119.01414793,-88.51256897,-62.61862373,-2.15131188,-162.47924751,70.32444890
8.33972715,-31.27613833,-3.14665536,-0.56799242,-0.96209601,-2.06895656

>  <Name>

>  <RI>
0

>  <Rbt.Current_Directory>
/extra/banzai2/j5wagner/CELPP/2016_10_17_rdock_implementation/normal_run/tutorialVideo/tutorial_rdock_implementation/full_week_run/4-docking/5m96/LMCSS_4wqp_docking

>  <Rbt.Executable>
rbdock ($Id: //depot/dev/client3/rdock/2013.1/src/exe/rbdock.cxx#4 $)

>  <Rbt.Library>
libRbt.so (2013.1, Build901 2013/11/27)

>  <Rbt.Parameter_File>
/home/j5wagner/env_00/source/rDock/rDock_2013.1_src//data/scripts/dock.prm

>  <Rbt.Receptor>
/extra/banzai2/j5wagner/CELPP/2016_10_17_rdock_implementation/normal_run/tutorialVideo/tutorial_rdock_implementation/full_week_run/4-docking/5m96/LMCSS_4wqp_tech_prep/rDockGridGenInput.prm

>  <SCORE>
-22.0178

>  <SCORE.INTER>
-17.3518

>  <SCORE.INTER.CONST>
1

>  <SCORE.INTER.POLAR>
0

>  <SCORE.INTER.REPUL>
0.00654697

>  <SCORE.INTER.ROT>
5

>  <SCORE.INTER.VDW>
-27.7845

>  <SCORE.INTER.norm>
-0.495765

>  <SCORE.INTRA>
0.455426

>  <SCORE.INTRA.DIHEDRAL>
0.681125

>  <SCORE.INTRA.DIHEDRAL.0>
9.74364

>  <SCORE.INTRA.POLAR>
0

>  <SCORE.INTRA.POLAR.0>
0

>  <SCORE.INTRA.REPUL>
-0.108387

>  <SCORE.INTRA.REPUL.0>
0.108387

>  <SCORE.INTRA.VDW>
0.6568

>  <SCORE.INTRA.VDW.0>
-2.87247

>  <SCORE.INTRA.norm>
0.0130122

>  <SCORE.RESTR>
0

>  <SCORE.RESTR.CAVITY>
0

>  <SCORE.RESTR.norm>
0

>  <SCORE.SYSTEM>
-5.12147

>  <SCORE.SYSTEM.CONST>
0

>  <SCORE.SYSTEM.DIHEDRAL>
4.01543

>  <SCORE.SYSTEM.POLAR>
-2.12245

>  <SCORE.SYSTEM.REPUL>
0.00215424

>  <SCORE.SYSTEM.VDW>
0.0763726

>  <SCORE.SYSTEM.norm>
-0.146328

>  <SCORE.heavy>
35

>  <SCORE.norm>
-0.629081

$$$$
