
     RDKit          2D

 36 40  0  0  0  0  0  0  0  0999 V2000
    5.4903    1.5684    0.0000 C   0  0  0  0  0  0  0  0  0  0  0  0
   -2.0411   -1.0440    0.0000 C   0  0  0  0  0  0  0  0  0  0  0  0
  -10.1261   -3.5126    0.0000 C   0  0  0  0  0  0  0  0  0  0  0  0
    9.1061   -2.9996    0.0000 C   0  0  0  0  0  0  0  0  0  0  0  0
    7.8443   -3.8107    0.0000 C   0  0  0  0  0  0  0  0  0  0  0  0
    8.7247   -1.5489    0.0000 C   0  0  0  0  0  0  0  0  0  0  0  0
    6.6830   -2.8612    0.0000 C   0  0  0  0  0  0  0  0  0  0  0  0
    0.9112    4.3635    0.0000 C   0  0  0  0  0  0  0  0  0  0  0  0
   -0.5714    4.1359    0.0000 C   0  0  0  0  0  0  0  0  0  0  0  0
    2.7322   -1.6777    0.0000 C   0  0  0  0  0  0  0  0  0  0  0  0
    4.2305   -1.6063    0.0000 C   0  0  0  0  0  0  0  0  0  0  0  0
   -6.4900   -1.9222    0.0000 C   0  0  0  0  0  0  0  0  0  0  0  0
   -8.2530   -0.0138    0.0000 C   0  0  0  0  0  0  0  0  0  0  0  0
    2.6085    0.9174    0.0000 C   0  0  0  0  0  0  0  0  0  0  0  0
    0.4229   -0.4873    0.0000 C   0  0  0  0  0  0  0  0  0  0  0  0
   -3.7641    2.5147    0.0000 C   0  0  0  0  0  0  0  0  0  0  0  0
    4.1068    0.9888    0.0000 C   0  0  0  0  0  0  0  0  0  0  0  0
   -1.8512    0.4440    0.0000 C   0  0  0  0  0  0  0  0  0  0  0  0
   -9.0242   -2.4947    0.0000 C   0  0  0  0  0  0  0  0  0  0  0  0
    7.2271   -1.4634    0.0000 C   0  0  0  0  0  0  0  0  0  0  0  0
   -6.8206   -0.4591    0.0000 C   0  0  0  0  0  0  0  0  0  0  0  0
   -0.3881    0.7745    0.0000 C   0  0  0  0  0  0  0  0  0  0  0  0
   -3.1845    1.1312    0.0000 C   0  0  0  0  0  0  0  0  0  0  0  0
    0.5202    1.9682    0.0000 C   0  0  0  0  0  0  0  0  0  0  0  0
   -5.7187    0.5587    0.0000 C   0  0  0  0  0  0  0  0  0  0  0  0
    6.4161   -0.2015    0.0000 C   0  0  0  0  0  0  0  0  0  0  0  0
    1.5859    3.0238    0.0000 N   0  0  0  0  0  0  0  0  0  0  0  0
   -7.5919   -2.9401    0.0000 N   0  0  0  0  0  0  0  0  0  0  0  0
   -9.3548   -1.0316    0.0000 N   0  0  0  0  0  0  0  0  0  0  0  0
   -4.2864    0.1134    0.0000 N   0  0  0  0  0  0  0  0  0  0  0  0
    1.9212   -0.4159    0.0000 N   0  0  0  0  0  0  0  0  0  0  0  0
   -0.8130    2.6555    0.0000 N   0  0  0  0  0  0  0  0  0  0  0  0
    4.9178   -0.2730    0.0000 N   0  0  0  0  0  0  0  0  0  0  0  0
   -6.0493    2.0218    0.0000 O   0  0  0  0  0  0  0  0  0  0  0  0
    7.1034    1.1317    0.0000 O   0  0  0  0  0  0  0  0  0  0  0  0
    3.7762    2.4520    0.0000 H   0  0  0  0  0  0  0  0  0  0  0  0
 17  1  1  6
  2 18  1  0
  3 19  1  0
  4  5  1  0
  4  6  1  0
  5  7  1  0
  6 20  1  0
  7 20  1  0
  8  9  2  0
  8 27  1  0
  9 32  1  0
 10 11  1  0
 10 31  1  0
 11 33  1  0
 12 21  2  0
 12 28  1  0
 13 21  1  0
 13 29  2  0
 14 17  1  0
 14 31  1  0
 15 22  1  0
 15 31  1  0
 16 23  2  0
 16 32  1  0
 17 36  1  0
 17 33  1  0
 18 22  2  0
 18 23  1  0
 19 28  2  0
 19 29  1  0
 20 26  1  0
 21 25  1  0
 22 24  1  0
 23 30  1  0
 24 27  2  0
 24 32  1  0
 25 30  2  3
 25 34  1  0
 26 33  1  0
 26 35  2  0
M  END
