
  rDOCK(R)          3D
libRbt.so/2013.1/901 2013/11/27
 28 30  0  0  0  0  0  0  0  0999 V2000
   38.5848   13.8767   85.2496 C   0  0  0  0  0  0
   39.6163   13.1250   84.5037 C   0  0  0  0  0  0
   39.4874   11.8747   84.4113 O   0  0  0  0  0  0
   40.7965   13.7716   83.8802 C   0  0  0  0  0  0
   41.3230   13.2654   82.6859 C   0  0  0  0  0  0
   42.4668   13.8338   82.0792 C   0  0  0  0  0  0
   43.0406   15.0032   82.6637 C   0  0  0  0  0  0
   42.5331   15.4564   83.9009 C   0  0  0  0  0  0
   41.4330   14.8497   84.4989 C   0  0  0  0  0  0
   44.2403   15.7332   82.0407 C   0  0  0  0  0  0
   43.9974   17.2630   82.0135 C   0  0  0  0  0  0
   45.5001   15.4472   82.8897 C   0  0  0  0  0  0
   44.4761   15.2909   80.5752 C   0  0  0  0  0  0
   44.3959   13.7784   80.4093 C   0  0  0  0  0  0
   42.9970   13.2212   80.7733 C   0  0  0  0  0  0
   43.1487   11.6852   80.9092 C   0  0  0  0  0  0
   41.9956   13.5209   79.6342 C   0  0  0  0  0  0
   38.5438   15.2171   85.2794 C   0  0  0  0  0  0
   37.5182   15.9974   86.0147 C   0  0  0  0  0  0
   36.4797   15.3897   86.7461 C   0  0  0  0  0  0
   35.5317   16.1698   87.4155 C   0  0  0  0  0  0
   35.5970   17.5729   87.3676 C   0  0  0  0  0  0
   34.5963   18.4132   88.0697 C   0  0  0  0  0  0
   33.6961   17.8666   88.7612 O   0  0  0  0  0  0
   34.6095   19.8045   87.9762 O   0  0  0  0  0  0
   36.6175   18.1774   86.6143 C   0  0  0  0  0  0
   37.5650   17.3981   85.9454 C   0  0  0  0  0  0
   35.2954   20.3080   87.4289 H   0  0  0  0  0  0
  1  2  1  0  0  0
  2  3  2  0  0  0
  2  4  1  0  0  0
  4  5  2  0  0  0
  5  6  1  0  0  0
  6  7  2  0  0  0
  7  8  1  0  0  0
  8  9  2  0  0  0
  7 10  1  0  0  0
 10 11  1  0  0  0
 10 12  1  0  0  0
 10 13  1  0  0  0
 13 14  1  0  0  0
 14 15  1  0  0  0
 15 16  1  0  0  0
 15 17  1  0  0  0
  1 18  2  0  0  0
 18 19  1  0  0  0
 19 20  2  0  0  0
 20 21  1  0  0  0
 21 22  2  0  0  0
 22 23  1  0  0  0
 23 24  2  0  0  0
 23 25  1  0  0  0
 22 26  1  0  0  0
 26 27  2  0  0  0
  9  4  1  0  0  0
 27 19  1  0  0  0
 15  6  1  0  0  0
 25 28  1  0  0  0
M  END
>  <CHROM.0>
-160.06665900,58.78269480,-65.64888934,68.29037282,-53.48263271,60.79951339
62.36822036,71.63776398

>  <CHROM.1>
-172.23446196,-146.30654486,-0.50087661,2.48907767,0.07077720,40.01849256
15.32076733,84.19335966,2.66907554,0.54554533,0.25928448

>  <RI>
3.35367e+07

>  <Rbt.Current_Directory>
/extra/banzai2/j5wagner/CELPP/2016_10_17_rdock_implementation/normal_run/tutorialVideo/tutorial_rdock_implementation/full_week_run/4-docking/1fcz/hiTanimoto_1fcz_docking

>  <Rbt.Executable>
rbdock ($Id: //depot/dev/client3/rdock/2013.1/src/exe/rbdock.cxx#4 $)

>  <Rbt.Library>
libRbt.so (2013.1, Build901 2013/11/27)

>  <Rbt.Parameter_File>
/home/j5wagner/env_00/source/rDock/rDock_2013.1_src//data/scripts/dock.prm

>  <Rbt.Receptor>
/extra/banzai2/j5wagner/CELPP/2016_10_17_rdock_implementation/normal_run/tutorialVideo/tutorial_rdock_implementation/full_week_run/4-docking/1fcz/hiTanimoto_1fcz_tech_prep/rDockGridGenInput.prm

>  <SCORE>
-55.7328

>  <SCORE.INTER>
-33.8027

>  <SCORE.INTER.CONST>
1

>  <SCORE.INTER.POLAR>
-2.63104

>  <SCORE.INTER.REPUL>
0

>  <SCORE.INTER.ROT>
4

>  <SCORE.INTER.VDW>
-34.2572

>  <SCORE.INTER.norm>
-1.25195

>  <SCORE.INTRA>
-2.54552

>  <SCORE.INTRA.DIHEDRAL>
-6.19458

>  <SCORE.INTRA.DIHEDRAL.0>
10.7811

>  <SCORE.INTRA.POLAR>
0

>  <SCORE.INTRA.POLAR.0>
0

>  <SCORE.INTRA.REPUL>
0

>  <SCORE.INTRA.REPUL.0>
0

>  <SCORE.INTRA.VDW>
0.551767

>  <SCORE.INTRA.VDW.0>
-0.812999

>  <SCORE.INTRA.norm>
-0.0942787

>  <SCORE.RESTR>
0

>  <SCORE.RESTR.CAVITY>
0

>  <SCORE.RESTR.norm>
0

>  <SCORE.SYSTEM>
-19.3846

>  <SCORE.SYSTEM.CONST>
0

>  <SCORE.SYSTEM.DIHEDRAL>
1.82473

>  <SCORE.SYSTEM.POLAR>
-4.94793

>  <SCORE.SYSTEM.VDW>
-3.47399

>  <SCORE.SYSTEM.norm>
-0.717947

>  <SCORE.heavy>
27

>  <SCORE.norm>
-2.06418

$$$$

  rDOCK(R)          3D
libRbt.so/2013.1/901 2013/11/27
 28 30  0  0  0  0  0  0  0  0999 V2000
   38.5395   13.9365   85.2570 C   0  0  0  0  0  0
   39.5388   13.1181   84.5381 C   0  0  0  0  0  0
   39.3651   11.8703   84.4988 O   0  0  0  0  0  0
   40.7371   13.6956   83.8821 C   0  0  0  0  0  0
   41.2107   13.1496   82.6831 C   0  0  0  0  0  0
   42.3690   13.6512   82.0457 C   0  0  0  0  0  0
   43.0150   14.7955   82.6038 C   0  0  0  0  0  0
   42.5585   15.2881   83.8459 C   0  0  0  0  0  0
   41.4417   14.7459   84.4742 C   0  0  0  0  0  0
   44.2371   15.4553   81.9469 C   0  0  0  0  0  0
   44.0730   16.9953   81.9064 C   0  0  0  0  0  0
   45.4985   15.1136   82.7726 C   0  0  0  0  0  0
   44.4179   14.9854   80.4822 C   0  0  0  0  0  0
   44.2560   13.4773   80.3363 C   0  0  0  0  0  0
   42.8384   12.9976   80.7364 C   0  0  0  0  0  0
   42.9133   11.4574   80.8876 C   0  0  0  0  0  0
   41.8294   13.3364   79.6151 C   0  0  0  0  0  0
   38.5665   15.2776   85.2590 C   0  0  0  0  0  0
   37.5746   16.1241   85.9669 C   0  0  0  0  0  0
   37.6406   17.5306   85.9719 C   0  0  0  0  0  0
   36.6857   18.2839   86.6618 C   0  0  0  0  0  0
   35.6460   17.6509   87.3644 C   0  0  0  0  0  0
   34.6282   18.4369   88.1037 C   0  0  0  0  0  0
   33.7248   17.8405   88.7482 O   0  0  0  0  0  0
   34.6289   19.8314   88.0966 O   0  0  0  0  0  0
   35.5980   16.2467   87.3815 C   0  0  0  0  0  0
   36.5519   15.4937   86.6920 C   0  0  0  0  0  0
   35.3297   20.3741   87.6088 H   0  0  0  0  0  0
  1  2  1  0  0  0
  2  3  2  0  0  0
  2  4  1  0  0  0
  4  5  2  0  0  0
  5  6  1  0  0  0
  6  7  2  0  0  0
  7  8  1  0  0  0
  8  9  2  0  0  0
  7 10  1  0  0  0
 10 11  1  0  0  0
 10 12  1  0  0  0
 10 13  1  0  0  0
 13 14  1  0  0  0
 14 15  1  0  0  0
 15 16  1  0  0  0
 15 17  1  0  0  0
  1 18  2  0  0  0
 18 19  1  0  0  0
 19 20  2  0  0  0
 20 21  1  0  0  0
 21 22  2  0  0  0
 22 23  1  0  0  0
 23 24  2  0  0  0
 23 25  1  0  0  0
 22 26  1  0  0  0
 26 27  2  0  0  0
  9  4  1  0  0  0
 27 19  1  0  0  0
 15  6  1  0  0  0
 25 28  1  0  0  0
M  END
>  <CHROM.0>
-157.73556629,-62.56046213,-65.19524714,66.94230832,59.76958095,177.09887118
61.88212987,68.75938118

>  <CHROM.1>
-173.99312018,-144.14316626,178.83750510,-178.46796898,-1.43655248,39.99114284
15.23601470,84.17433864,2.62795072,0.54100652,0.28233291

>  <RI>
3.35367e+07

>  <Rbt.Current_Directory>
/extra/banzai2/j5wagner/CELPP/2016_10_17_rdock_implementation/normal_run/tutorialVideo/tutorial_rdock_implementation/full_week_run/4-docking/1fcz/hiTanimoto_1fcz_docking

>  <Rbt.Executable>
rbdock ($Id: //depot/dev/client3/rdock/2013.1/src/exe/rbdock.cxx#4 $)

>  <Rbt.Library>
libRbt.so (2013.1, Build901 2013/11/27)

>  <Rbt.Parameter_File>
/home/j5wagner/env_00/source/rDock/rDock_2013.1_src//data/scripts/dock.prm

>  <Rbt.Receptor>
/extra/banzai2/j5wagner/CELPP/2016_10_17_rdock_implementation/normal_run/tutorialVideo/tutorial_rdock_implementation/full_week_run/4-docking/1fcz/hiTanimoto_1fcz_tech_prep/rDockGridGenInput.prm

>  <SCORE>
-55.6483

>  <SCORE.INTER>
-34.0036

>  <SCORE.INTER.CONST>
1

>  <SCORE.INTER.POLAR>
-2.64841

>  <SCORE.INTER.REPUL>
0

>  <SCORE.INTER.ROT>
4

>  <SCORE.INTER.VDW>
-34.399

>  <SCORE.INTER.norm>
-1.25939

>  <SCORE.INTRA>
-2.11692

>  <SCORE.INTRA.DIHEDRAL>
-5.82751

>  <SCORE.INTRA.DIHEDRAL.0>
10.7811

>  <SCORE.INTRA.POLAR>
0

>  <SCORE.INTRA.POLAR.0>
0

>  <SCORE.INTRA.REPUL>
0

>  <SCORE.INTRA.REPUL.0>
0

>  <SCORE.INTRA.VDW>
0.796841

>  <SCORE.INTRA.VDW.0>
-0.812999

>  <SCORE.INTRA.norm>
-0.0784043

>  <SCORE.RESTR>
0

>  <SCORE.RESTR.CAVITY>
0

>  <SCORE.RESTR.norm>
0

>  <SCORE.SYSTEM>
-19.5278

>  <SCORE.SYSTEM.CONST>
0

>  <SCORE.SYSTEM.DIHEDRAL>
1.47438

>  <SCORE.SYSTEM.POLAR>
-4.98957

>  <SCORE.SYSTEM.VDW>
-3.30045

>  <SCORE.SYSTEM.norm>
-0.723252

>  <SCORE.heavy>
27

>  <SCORE.norm>
-2.06105

$$$$

  rDOCK(R)          3D
libRbt.so/2013.1/901 2013/11/27
 28 30  0  0  0  0  0  0  0  0999 V2000
   38.5320   13.9785   85.2133 C   0  0  0  0  0  0
   39.5296   13.1684   84.4826 C   0  0  0  0  0  0
   39.3367   11.9257   84.3986 O   0  0  0  0  0  0
   40.7471   13.7478   83.8648 C   0  0  0  0  0  0
   41.2266   13.2397   82.6517 C   0  0  0  0  0  0
   42.4025   13.7433   82.0491 C   0  0  0  0  0  0
   43.0621   14.8527   82.6595 C   0  0  0  0  0  0
   42.5982   15.3054   83.9139 C   0  0  0  0  0  0
   41.4631   14.7608   84.5064 C   0  0  0  0  0  0
   44.3050   15.5138   82.0444 C   0  0  0  0  0  0
   44.1702   17.0572   82.0618 C   0  0  0  0  0  0
   45.5486   15.1164   82.8722 C   0  0  0  0  0  0
   44.4967   15.0975   80.5650 C   0  0  0  0  0  0
   44.3088   13.5996   80.3584 C   0  0  0  0  0  0
   42.8772   13.1320   80.7214 C   0  0  0  0  0  0
   42.9214   11.5860   80.8135 C   0  0  0  0  0  0
   41.8899   13.5332   79.6014 C   0  0  0  0  0  0
   38.5650   15.3193   85.2389 C   0  0  0  0  0  0
   37.5750   16.1577   85.9590 C   0  0  0  0  0  0
   37.6172   17.5650   85.9458 C   0  0  0  0  0  0
   36.6654   18.3107   86.6483 C   0  0  0  0  0  0
   35.6527   17.6690   87.3817 C   0  0  0  0  0  0
   34.6386   18.4470   88.1346 C   0  0  0  0  0  0
   33.7507   17.8433   88.7938 O   0  0  0  0  0  0
   34.6258   19.8414   88.1245 O   0  0  0  0  0  0
   35.6290   16.2646   87.4166 C   0  0  0  0  0  0
   36.5798   15.5192   86.7145 C   0  0  0  0  0  0
   35.3205   20.3898   87.6344 H   0  0  0  0  0  0
  1  2  1  0  0  0
  2  3  2  0  0  0
  2  4  1  0  0  0
  4  5  2  0  0  0
  5  6  1  0  0  0
  6  7  2  0  0  0
  7  8  1  0  0  0
  8  9  2  0  0  0
  7 10  1  0  0  0
 10 11  1  0  0  0
 10 12  1  0  0  0
 10 13  1  0  0  0
 13 14  1  0  0  0
 14 15  1  0  0  0
 15 16  1  0  0  0
 15 17  1  0  0  0
  1 18  2  0  0  0
 18 19  1  0  0  0
 19 20  2  0  0  0
 20 21  1  0  0  0
 21 22  2  0  0  0
 22 23  1  0  0  0
 23 24  2  0  0  0
 23 25  1  0  0  0
 22 26  1  0  0  0
 26 27  2  0  0  0
  9  4  1  0  0  0
 27 19  1  0  0  0
 15  6  1  0  0  0
 25 28  1  0  0  0
M  END
>  <CHROM.0>
-159.92034393,176.68477736,-62.77734182,66.74590711,-57.95441543,59.03579040
62.30008875,74.92941950

>  <CHROM.1>
-172.63546458,-143.77383515,-178.62022214,-179.29329462,-2.20108366,40.01473373
15.29226337,84.18865240,2.62118879,0.52471278,0.31230876

>  <RI>
3.35367e+07

>  <Rbt.Current_Directory>
/extra/banzai2/j5wagner/CELPP/2016_10_17_rdock_implementation/normal_run/tutorialVideo/tutorial_rdock_implementation/full_week_run/4-docking/1fcz/hiTanimoto_1fcz_docking

>  <Rbt.Executable>
rbdock ($Id: //depot/dev/client3/rdock/2013.1/src/exe/rbdock.cxx#4 $)

>  <Rbt.Library>
libRbt.so (2013.1, Build901 2013/11/27)

>  <Rbt.Parameter_File>
/home/j5wagner/env_00/source/rDock/rDock_2013.1_src//data/scripts/dock.prm

>  <Rbt.Receptor>
/extra/banzai2/j5wagner/CELPP/2016_10_17_rdock_implementation/normal_run/tutorialVideo/tutorial_rdock_implementation/full_week_run/4-docking/1fcz/hiTanimoto_1fcz_tech_prep/rDockGridGenInput.prm

>  <SCORE>
-55.1958

>  <SCORE.INTER>
-33.8797

>  <SCORE.INTER.CONST>
1

>  <SCORE.INTER.POLAR>
-2.59633

>  <SCORE.INTER.REPUL>
0

>  <SCORE.INTER.ROT>
4

>  <SCORE.INTER.VDW>
-34.4522

>  <SCORE.INTER.norm>
-1.2548

>  <SCORE.INTRA>
-2.06526

>  <SCORE.INTRA.DIHEDRAL>
-5.65039

>  <SCORE.INTRA.DIHEDRAL.0>
10.7811

>  <SCORE.INTRA.POLAR>
0

>  <SCORE.INTRA.POLAR.0>
0

>  <SCORE.INTRA.REPUL>
0

>  <SCORE.INTRA.REPUL.0>
0

>  <SCORE.INTRA.VDW>
0.759934

>  <SCORE.INTRA.VDW.0>
-0.812999

>  <SCORE.INTRA.norm>
-0.0764911

>  <SCORE.RESTR>
0

>  <SCORE.RESTR.CAVITY>
0

>  <SCORE.RESTR.norm>
0

>  <SCORE.SYSTEM>
-19.2508

>  <SCORE.SYSTEM.CONST>
0

>  <SCORE.SYSTEM.DIHEDRAL>
1.92882

>  <SCORE.SYSTEM.POLAR>
-4.91139

>  <SCORE.SYSTEM.VDW>
-3.5165

>  <SCORE.SYSTEM.norm>
-0.712993

>  <SCORE.heavy>
27

>  <SCORE.norm>
-2.04429

$$$$

  rDOCK(R)          3D
libRbt.so/2013.1/901 2013/11/27
 28 30  0  0  0  0  0  0  0  0999 V2000
   38.5527   14.0431   85.2303 C   0  0  0  0  0  0
   39.5616   13.2364   84.5115 C   0  0  0  0  0  0
   39.3821   11.9909   84.4391 O   0  0  0  0  0  0
   40.7754   13.8224   83.8927 C   0  0  0  0  0  0
   41.2552   13.3185   82.6780 C   0  0  0  0  0  0
   42.4278   13.8286   82.0742 C   0  0  0  0  0  0
   43.0833   14.9400   82.6854 C   0  0  0  0  0  0
   42.6193   15.3885   83.9412 C   0  0  0  0  0  0
   41.4877   14.8377   84.5347 C   0  0  0  0  0  0
   44.3220   15.6079   82.0693 C   0  0  0  0  0  0
   44.1801   17.1505   82.0893 C   0  0  0  0  0  0
   45.5688   15.2149   82.8944 C   0  0  0  0  0  0
   44.5133   15.1948   80.5889 C   0  0  0  0  0  0
   44.3320   13.6964   80.3802 C   0  0  0  0  0  0
   42.9032   13.2215   80.7448 C   0  0  0  0  0  0
   42.9548   11.6756   80.8344 C   0  0  0  0  0  0
   41.9122   13.6199   79.6271 C   0  0  0  0  0  0
   38.5657   15.3844   85.2343 C   0  0  0  0  0  0
   37.5640   16.2194   85.9421 C   0  0  0  0  0  0
   37.6475   17.6239   85.9981 C   0  0  0  0  0  0
   36.6821   18.3659   86.6858 C   0  0  0  0  0  0
   35.6142   17.7232   87.3352 C   0  0  0  0  0  0
   34.5850   18.4970   88.0715 C   0  0  0  0  0  0
   33.6965   17.8899   88.7269 O   0  0  0  0  0  0
   34.5584   19.8911   88.0498 O   0  0  0  0  0  0
   35.5481   16.3200   87.3019 C   0  0  0  0  0  0
   36.5125   15.5784   86.6146 C   0  0  0  0  0  0
   35.2360   20.4418   87.5387 H   0  0  0  0  0  0
  1  2  1  0  0  0
  2  3  2  0  0  0
  2  4  1  0  0  0
  4  5  2  0  0  0
  5  6  1  0  0  0
  6  7  2  0  0  0
  7  8  1  0  0  0
  8  9  2  0  0  0
  7 10  1  0  0  0
 10 11  1  0  0  0
 10 12  1  0  0  0
 10 13  1  0  0  0
 13 14  1  0  0  0
 14 15  1  0  0  0
 15 16  1  0  0  0
 15 17  1  0  0  0
  1 18  2  0  0  0
 18 19  1  0  0  0
 19 20  2  0  0  0
 20 21  1  0  0  0
 21 22  2  0  0  0
 22 23  1  0  0  0
 23 24  2  0  0  0
 23 25  1  0  0  0
 22 26  1  0  0  0
 26 27  2  0  0  0
  9  4  1  0  0  0
 27 19  1  0  0  0
 15  6  1  0  0  0
 25 28  1  0  0  0
M  END
>  <CHROM.0>
-155.80226505,179.66017303,-65.86951199,67.06166080,65.43765928,-54.47364647
63.34545474,71.69468825

>  <CHROM.1>
-172.11621384,-142.97056970,176.00841029,-174.71385774,-0.27523586,40.01758342
15.36579701,84.18958699,2.63119958,0.51873882,0.30499345

>  <RI>
3.35367e+07

>  <Rbt.Current_Directory>
/extra/banzai2/j5wagner/CELPP/2016_10_17_rdock_implementation/normal_run/tutorialVideo/tutorial_rdock_implementation/full_week_run/4-docking/1fcz/hiTanimoto_1fcz_docking

>  <Rbt.Executable>
rbdock ($Id: //depot/dev/client3/rdock/2013.1/src/exe/rbdock.cxx#4 $)

>  <Rbt.Library>
libRbt.so (2013.1, Build901 2013/11/27)

>  <Rbt.Parameter_File>
/home/j5wagner/env_00/source/rDock/rDock_2013.1_src//data/scripts/dock.prm

>  <Rbt.Receptor>
/extra/banzai2/j5wagner/CELPP/2016_10_17_rdock_implementation/normal_run/tutorialVideo/tutorial_rdock_implementation/full_week_run/4-docking/1fcz/hiTanimoto_1fcz_tech_prep/rDockGridGenInput.prm

>  <SCORE>
-55.1829

>  <SCORE.INTER>
-33.9066

>  <SCORE.INTER.CONST>
1

>  <SCORE.INTER.POLAR>
-2.63903

>  <SCORE.INTER.REPUL>
0

>  <SCORE.INTER.ROT>
4

>  <SCORE.INTER.VDW>
-34.3339

>  <SCORE.INTER.norm>
-1.2558

>  <SCORE.INTRA>
-1.96302

>  <SCORE.INTRA.DIHEDRAL>
-5.35912

>  <SCORE.INTRA.DIHEDRAL.0>
10.7811

>  <SCORE.INTRA.POLAR>
0

>  <SCORE.INTRA.POLAR.0>
0

>  <SCORE.INTRA.REPUL>
0

>  <SCORE.INTRA.REPUL.0>
0

>  <SCORE.INTRA.VDW>
0.716536

>  <SCORE.INTRA.VDW.0>
-0.812999

>  <SCORE.INTRA.norm>
-0.0727046

>  <SCORE.RESTR>
0

>  <SCORE.RESTR.CAVITY>
0

>  <SCORE.RESTR.norm>
0

>  <SCORE.SYSTEM>
-19.3133

>  <SCORE.SYSTEM.CONST>
0

>  <SCORE.SYSTEM.DIHEDRAL>
2.06467

>  <SCORE.SYSTEM.POLAR>
-4.93137

>  <SCORE.SYSTEM.VDW>
-3.57893

>  <SCORE.SYSTEM.norm>
-0.715306

>  <SCORE.heavy>
27

>  <SCORE.norm>
-2.04381

$$$$

  rDOCK(R)          3D
libRbt.so/2013.1/901 2013/11/27
 28 30  0  0  0  0  0  0  0  0999 V2000
   38.5318   13.9929   85.2354 C   0  0  0  0  0  0
   39.5422   13.1817   84.5238 C   0  0  0  0  0  0
   39.3724   11.9338   84.4747 O   0  0  0  0  0  0
   40.7468   13.7664   83.8860 C   0  0  0  0  0  0
   41.2395   13.2259   82.6924 C   0  0  0  0  0  0
   42.4042   13.7346   82.0724 C   0  0  0  0  0  0
   43.0371   14.8803   82.6426 C   0  0  0  0  0  0
   42.5611   15.3674   83.8794 C   0  0  0  0  0  0
   41.4382   14.8184   84.4907 C   0  0  0  0  0  0
   44.2652   15.5474   82.0045 C   0  0  0  0  0  0
   44.0946   17.0868   81.9657 C   0  0  0  0  0  0
   45.5165   15.2092   82.8467 C   0  0  0  0  0  0
   44.4685   15.0823   80.5412 C   0  0  0  0  0  0
   44.3157   13.5739   80.3890 C   0  0  0  0  0  0
   42.8948   13.0866   80.7681 C   0  0  0  0  0  0
   42.9748   11.5464   80.9162 C   0  0  0  0  0  0
   41.9000   13.4238   79.6338 C   0  0  0  0  0  0
   38.5860   15.3320   85.2923 C   0  0  0  0  0  0
   37.5842   16.1716   85.9943 C   0  0  0  0  0  0
   37.6464   17.5782   86.0085 C   0  0  0  0  0  0
   36.6819   18.3249   86.6924 C   0  0  0  0  0  0
   35.6363   17.6849   87.3796 C   0  0  0  0  0  0
   34.6083   18.4638   88.1125 C   0  0  0  0  0  0
   33.7065   17.8610   88.7533 O   0  0  0  0  0  0
   34.5977   19.8582   88.1030 O   0  0  0  0  0  0
   35.5918   16.2805   87.3878 C   0  0  0  0  0  0
   36.5553   15.5342   86.7043 C   0  0  0  0  0  0
   35.2806   20.4056   87.5956 H   0  0  0  0  0  0
  1  2  1  0  0  0
  2  3  2  0  0  0
  2  4  1  0  0  0
  4  5  2  0  0  0
  5  6  1  0  0  0
  6  7  2  0  0  0
  7  8  1  0  0  0
  8  9  2  0  0  0
  7 10  1  0  0  0
 10 11  1  0  0  0
 10 12  1  0  0  0
 10 13  1  0  0  0
 13 14  1  0  0  0
 14 15  1  0  0  0
 15 16  1  0  0  0
 15 17  1  0  0  0
  1 18  2  0  0  0
 18 19  1  0  0  0
 19 20  2  0  0  0
 20 21  1  0  0  0
 21 22  2  0  0  0
 22 23  1  0  0  0
 23 24  2  0  0  0
 23 25  1  0  0  0
 22 26  1  0  0  0
 26 27  2  0  0  0
  9  4  1  0  0  0
 27 19  1  0  0  0
 15  6  1  0  0  0
 25 28  1  0  0  0
M  END
>  <CHROM.0>
-158.29689926,-60.09412956,-66.15198304,177.43742777,63.10778089,-178.08776211
62.66274867,72.16407321

>  <CHROM.1>
-176.82603630,-144.38841019,-178.28757287,-177.82972763,0.40435191,40.00639837
15.30122188,84.19768009,2.63131610,0.53405475,0.28891873

>  <RI>
3.35367e+07

>  <Rbt.Current_Directory>
/extra/banzai2/j5wagner/CELPP/2016_10_17_rdock_implementation/normal_run/tutorialVideo/tutorial_rdock_implementation/full_week_run/4-docking/1fcz/hiTanimoto_1fcz_docking

>  <Rbt.Executable>
rbdock ($Id: //depot/dev/client3/rdock/2013.1/src/exe/rbdock.cxx#4 $)

>  <Rbt.Library>
libRbt.so (2013.1, Build901 2013/11/27)

>  <Rbt.Parameter_File>
/home/j5wagner/env_00/source/rDock/rDock_2013.1_src//data/scripts/dock.prm

>  <Rbt.Receptor>
/extra/banzai2/j5wagner/CELPP/2016_10_17_rdock_implementation/normal_run/tutorialVideo/tutorial_rdock_implementation/full_week_run/4-docking/1fcz/hiTanimoto_1fcz_tech_prep/rDockGridGenInput.prm

>  <SCORE>
-54.1766

>  <SCORE.INTER>
-33.8189

>  <SCORE.INTER.CONST>
1

>  <SCORE.INTER.POLAR>
-2.63379

>  <SCORE.INTER.REPUL>
0

>  <SCORE.INTER.ROT>
4

>  <SCORE.INTER.VDW>
-34.264

>  <SCORE.INTER.norm>
-1.25255

>  <SCORE.INTRA>
-2.12848

>  <SCORE.INTRA.DIHEDRAL>
-5.94718

>  <SCORE.INTRA.DIHEDRAL.0>
10.7811

>  <SCORE.INTRA.POLAR>
0

>  <SCORE.INTRA.POLAR.0>
0

>  <SCORE.INTRA.REPUL>
0

>  <SCORE.INTRA.REPUL.0>
0

>  <SCORE.INTRA.VDW>
0.845113

>  <SCORE.INTRA.VDW.0>
-0.812999

>  <SCORE.INTRA.norm>
-0.0788324

>  <SCORE.RESTR>
0

>  <SCORE.RESTR.CAVITY>
0

>  <SCORE.RESTR.norm>
0

>  <SCORE.SYSTEM>
-18.2292

>  <SCORE.SYSTEM.CONST>
0

>  <SCORE.SYSTEM.DIHEDRAL>
1.63902

>  <SCORE.SYSTEM.POLAR>
-4.80753

>  <SCORE.SYSTEM.VDW>
-2.70314

>  <SCORE.SYSTEM.norm>
-0.675157

>  <SCORE.heavy>
27

>  <SCORE.norm>
-2.00654

$$$$

  rDOCK(R)          3D
libRbt.so/2013.1/901 2013/11/27
 28 30  0  0  0  0  0  0  0  0999 V2000
   38.7985   13.8031   85.1024 C   0  0  0  0  0  0
   39.8613   13.0670   84.3855 C   0  0  0  0  0  0
   39.7554   11.8145   84.2930 O   0  0  0  0  0  0
   41.0465   13.7316   83.7911 C   0  0  0  0  0  0
   41.6076   13.2360   82.6081 C   0  0  0  0  0  0
   42.7571   13.8220   82.0296 C   0  0  0  0  0  0
   43.3008   14.9976   82.6301 C   0  0  0  0  0  0
   42.7584   15.4404   83.8562 C   0  0  0  0  0  0
   41.6533   14.8168   84.4270 C   0  0  0  0  0  0
   44.5043   15.7459   82.0369 C   0  0  0  0  0  0
   44.2407   17.2723   82.0077 C   0  0  0  0  0  0
   45.7479   15.4751   82.9142 C   0  0  0  0  0  0
   44.7802   15.3109   80.5762 C   0  0  0  0  0  0
   44.7251   13.7979   80.4048 C   0  0  0  0  0  0
   43.3260   13.2203   80.7349 C   0  0  0  0  0  0
   43.4959   11.6863   80.8706 C   0  0  0  0  0  0
   42.3472   13.5092   79.5735 C   0  0  0  0  0  0
   38.7265   15.1425   85.1157 C   0  0  0  0  0  0
   37.6692   15.9073   85.8218 C   0  0  0  0  0  0
   37.5664   17.3096   85.7474 C   0  0  0  0  0  0
   36.5562   17.9854   86.4391 C   0  0  0  0  0  0
   35.6285   17.2775   87.2223 C   0  0  0  0  0  0
   34.5539   17.9813   87.9644 C   0  0  0  0  0  0
   34.3705   19.2139   87.7792 O   0  0  0  0  0  0
   33.7400   17.3191   88.8829 O   0  0  0  0  0  0
   35.7497   15.8809   87.3178 C   0  0  0  0  0  0
   36.7589   15.2055   86.6267 C   0  0  0  0  0  0
   33.8266   16.3295   89.0744 H   0  0  0  0  0  0
  1  2  1  0  0  0
  2  3  2  0  0  0
  2  4  1  0  0  0
  4  5  2  0  0  0
  5  6  1  0  0  0
  6  7  2  0  0  0
  7  8  1  0  0  0
  8  9  2  0  0  0
  7 10  1  0  0  0
 10 11  1  0  0  0
 10 12  1  0  0  0
 10 13  1  0  0  0
 13 14  1  0  0  0
 14 15  1  0  0  0
 15 16  1  0  0  0
 15 17  1  0  0  0
  1 18  2  0  0  0
 18 19  1  0  0  0
 19 20  2  0  0  0
 20 21  1  0  0  0
 21 22  2  0  0  0
 22 23  1  0  0  0
 23 24  2  0  0  0
 23 25  1  0  0  0
 22 26  1  0  0  0
 26 27  2  0  0  0
  9  4  1  0  0  0
 27 19  1  0  0  0
 15  6  1  0  0  0
 25 28  1  0  0  0
M  END
>  <CHROM.0>
-157.78567207,176.59347560,-66.46985157,67.89400893,60.85196148,-178.77626148
68.53924471,71.08921194

>  <CHROM.1>
-171.49443905,-145.95147775,-175.72984002,7.96223417,-1.31938859,40.20661155
15.19372828,84.12084353,2.71719351,0.53386474,0.25847369

>  <RI>
3.35367e+07

>  <Rbt.Current_Directory>
/extra/banzai2/j5wagner/CELPP/2016_10_17_rdock_implementation/normal_run/tutorialVideo/tutorial_rdock_implementation/full_week_run/4-docking/1fcz/hiTanimoto_1fcz_docking

>  <Rbt.Executable>
rbdock ($Id: //depot/dev/client3/rdock/2013.1/src/exe/rbdock.cxx#4 $)

>  <Rbt.Library>
libRbt.so (2013.1, Build901 2013/11/27)

>  <Rbt.Parameter_File>
/home/j5wagner/env_00/source/rDock/rDock_2013.1_src//data/scripts/dock.prm

>  <Rbt.Receptor>
/extra/banzai2/j5wagner/CELPP/2016_10_17_rdock_implementation/normal_run/tutorialVideo/tutorial_rdock_implementation/full_week_run/4-docking/1fcz/hiTanimoto_1fcz_tech_prep/rDockGridGenInput.prm

>  <SCORE>
-53.5388

>  <SCORE.INTER>
-31.9567

>  <SCORE.INTER.CONST>
1

>  <SCORE.INTER.POLAR>
-2.18479

>  <SCORE.INTER.REPUL>
0

>  <SCORE.INTER.ROT>
4

>  <SCORE.INTER.VDW>
-33.9285

>  <SCORE.INTER.norm>
-1.18358

>  <SCORE.INTRA>
-2.10388

>  <SCORE.INTRA.DIHEDRAL>
-5.75783

>  <SCORE.INTRA.DIHEDRAL.0>
10.7811

>  <SCORE.INTRA.POLAR>
0

>  <SCORE.INTRA.POLAR.0>
0

>  <SCORE.INTRA.REPUL>
0

>  <SCORE.INTRA.REPUL.0>
0

>  <SCORE.INTRA.VDW>
0.77504

>  <SCORE.INTRA.VDW.0>
-0.812999

>  <SCORE.INTRA.norm>
-0.0779214

>  <SCORE.RESTR>
0

>  <SCORE.RESTR.CAVITY>
0

>  <SCORE.RESTR.norm>
0

>  <SCORE.SYSTEM>
-19.4782

>  <SCORE.SYSTEM.CONST>
0

>  <SCORE.SYSTEM.DIHEDRAL>
2.16255

>  <SCORE.SYSTEM.POLAR>
-4.95211

>  <SCORE.SYSTEM.VDW>
-3.7223

>  <SCORE.SYSTEM.norm>
-0.721415

>  <SCORE.heavy>
27

>  <SCORE.norm>
-1.98292

$$$$

  rDOCK(R)          3D
libRbt.so/2013.1/901 2013/11/27
 28 30  0  0  0  0  0  0  0  0999 V2000
   38.7125   13.9405   85.1840 C   0  0  0  0  0  0
   39.7591   13.1811   84.4677 C   0  0  0  0  0  0
   39.6332   11.9296   84.3878 O   0  0  0  0  0  0
   40.9508   13.8214   83.8596 C   0  0  0  0  0  0
   41.5061   13.2965   82.6867 C   0  0  0  0  0  0
   42.6614   13.8589   82.0961 C   0  0  0  0  0  0
   43.2173   15.0407   82.6727 C   0  0  0  0  0  0
   42.6801   15.5136   83.8899 C   0  0  0  0  0  0
   41.5690   14.9129   84.4735 C   0  0  0  0  0  0
   44.4282   15.7645   82.0642 C   0  0  0  0  0  0
   44.1802   17.2927   82.0044 C   0  0  0  0  0  0
   45.6694   15.4988   82.9465 C   0  0  0  0  0  0
   44.6989   15.2975   80.6125 C   0  0  0  0  0  0
   44.6281   13.7820   80.4716 C   0  0  0  0  0  0
   43.2234   13.2255   80.8136 C   0  0  0  0  0  0
   43.3776   11.6928   80.9801 C   0  0  0  0  0  0
   42.2470   13.5009   79.6470 C   0  0  0  0  0  0
   38.7371   15.2766   85.3000 C   0  0  0  0  0  0
   37.6986   16.0649   86.0082 C   0  0  0  0  0  0
   36.6005   15.4677   86.6565 C   0  0  0  0  0  0
   35.6432   16.2555   87.3033 C   0  0  0  0  0  0
   35.7584   17.6562   87.3148 C   0  0  0  0  0  0
   34.7486   18.5047   87.9936 C   0  0  0  0  0  0
   34.8811   19.7576   87.9903 O   0  0  0  0  0  0
   33.6522   17.9543   88.6567 O   0  0  0  0  0  0
   36.8396   18.2516   86.6435 C   0  0  0  0  0  0
   37.7965   17.4646   85.9973 C   0  0  0  0  0  0
   33.5174   16.9562   88.7525 H   0  0  0  0  0  0
  1  2  1  0  0  0
  2  3  2  0  0  0
  2  4  1  0  0  0
  4  5  2  0  0  0
  5  6  1  0  0  0
  6  7  2  0  0  0
  7  8  1  0  0  0
  8  9  2  0  0  0
  7 10  1  0  0  0
 10 11  1  0  0  0
 10 12  1  0  0  0
 10 13  1  0  0  0
 13 14  1  0  0  0
 14 15  1  0  0  0
 15 16  1  0  0  0
 15 17  1  0  0  0
  1 18  2  0  0  0
 18 19  1  0  0  0
 19 20  2  0  0  0
 20 21  1  0  0  0
 21 22  2  0  0  0
 22 23  1  0  0  0
 23 24  2  0  0  0
 23 25  1  0  0  0
 22 26  1  0  0  0
 26 27  2  0  0  0
  9  4  1  0  0  0
 27 19  1  0  0  0
 15  6  1  0  0  0
 25 28  1  0  0  0
M  END
>  <CHROM.0>
-161.01868369,60.83724588,-63.80087551,68.83600654,62.55588534,-53.24438832
71.09098375,71.42271974

>  <CHROM.1>
-178.50119868,-146.70765642,1.64003202,179.79492455,3.46811142,40.18732766
15.35452782,84.19070924,2.66352116,0.52850871,0.27683131

>  <RI>
3.35367e+07

>  <Rbt.Current_Directory>
/extra/banzai2/j5wagner/CELPP/2016_10_17_rdock_implementation/normal_run/tutorialVideo/tutorial_rdock_implementation/full_week_run/4-docking/1fcz/hiTanimoto_1fcz_docking

>  <Rbt.Executable>
rbdock ($Id: //depot/dev/client3/rdock/2013.1/src/exe/rbdock.cxx#4 $)

>  <Rbt.Library>
libRbt.so (2013.1, Build901 2013/11/27)

>  <Rbt.Parameter_File>
/home/j5wagner/env_00/source/rDock/rDock_2013.1_src//data/scripts/dock.prm

>  <Rbt.Receptor>
/extra/banzai2/j5wagner/CELPP/2016_10_17_rdock_implementation/normal_run/tutorialVideo/tutorial_rdock_implementation/full_week_run/4-docking/1fcz/hiTanimoto_1fcz_tech_prep/rDockGridGenInput.prm

>  <SCORE>
-53.2903

>  <SCORE.INTER>
-31.5064

>  <SCORE.INTER.CONST>
1

>  <SCORE.INTER.POLAR>
-2.01522

>  <SCORE.INTER.REPUL>
0

>  <SCORE.INTER.ROT>
4

>  <SCORE.INTER.VDW>
-34.0547

>  <SCORE.INTER.norm>
-1.1669

>  <SCORE.INTRA>
-2.49952

>  <SCORE.INTRA.DIHEDRAL>
-6.38695

>  <SCORE.INTRA.DIHEDRAL.0>
10.7811

>  <SCORE.INTRA.POLAR>
0

>  <SCORE.INTRA.POLAR.0>
0

>  <SCORE.INTRA.REPUL>
0

>  <SCORE.INTRA.REPUL.0>
0

>  <SCORE.INTRA.VDW>
0.693955

>  <SCORE.INTRA.VDW.0>
-0.812999

>  <SCORE.INTRA.norm>
-0.0925749

>  <SCORE.RESTR>
0

>  <SCORE.RESTR.CAVITY>
0

>  <SCORE.RESTR.norm>
0

>  <SCORE.SYSTEM>
-19.2844

>  <SCORE.SYSTEM.CONST>
0

>  <SCORE.SYSTEM.DIHEDRAL>
2.29427

>  <SCORE.SYSTEM.POLAR>
-4.92018

>  <SCORE.SYSTEM.VDW>
-3.70291

>  <SCORE.SYSTEM.norm>
-0.714236

>  <SCORE.heavy>
27

>  <SCORE.norm>
-1.97372

$$$$

  rDOCK(R)          3D
libRbt.so/2013.1/901 2013/11/27
 28 30  0  0  0  0  0  0  0  0999 V2000
   38.5775   13.8651   85.3099 C   0  0  0  0  0  0
   39.6030   13.1003   84.5691 C   0  0  0  0  0  0
   39.4816   11.8470   84.5127 O   0  0  0  0  0  0
   40.7691   13.7374   83.9102 C   0  0  0  0  0  0
   41.2509   13.2315   82.6971 C   0  0  0  0  0  0
   42.3803   13.7908   82.0559 C   0  0  0  0  0  0
   42.9852   14.9513   82.6265 C   0  0  0  0  0  0
   42.5231   15.4039   83.8816 C   0  0  0  0  0  0
   41.4368   14.8059   84.5125 C   0  0  0  0  0  0
   44.1716   15.6716   81.9678 C   0  0  0  0  0  0
   43.9442   17.2041   81.9553 C   0  0  0  0  0  0
   45.4553   15.3684   82.7739 C   0  0  0  0  0  0
   44.3548   15.2339   80.4935 C   0  0  0  0  0  0
   44.2532   13.7231   80.3235 C   0  0  0  0  0  0
   42.8610   13.1789   80.7306 C   0  0  0  0  0  0
   43.0007   11.6408   80.8547 C   0  0  0  0  0  0
   41.8262   13.4945   79.6262 C   0  0  0  0  0  0
   38.5396   15.2059   85.3201 C   0  0  0  0  0  0
   37.5201   15.9993   86.0499 C   0  0  0  0  0  0
   36.5277   15.4068   86.8542 C   0  0  0  0  0  0
   35.5832   16.1983   87.5152 C   0  0  0  0  0  0
   35.6060   17.5976   87.3860 C   0  0  0  0  0  0
   34.6083   18.4495   88.0783 C   0  0  0  0  0  0
   33.6830   17.9131   88.7442 O   0  0  0  0  0  0
   34.6518   19.8413   88.0031 O   0  0  0  0  0  0
   36.5796   18.1851   86.5607 C   0  0  0  0  0  0
   37.5236   17.3944   85.9002 C   0  0  0  0  0  0
   35.3781   20.3382   87.5039 H   0  0  0  0  0  0
  1  2  1  0  0  0
  2  3  2  0  0  0
  2  4  1  0  0  0
  4  5  2  0  0  0
  5  6  1  0  0  0
  6  7  2  0  0  0
  7  8  1  0  0  0
  8  9  2  0  0  0
  7 10  1  0  0  0
 10 11  1  0  0  0
 10 12  1  0  0  0
 10 13  1  0  0  0
 13 14  1  0  0  0
 14 15  1  0  0  0
 15 16  1  0  0  0
 15 17  1  0  0  0
  1 18  2  0  0  0
 18 19  1  0  0  0
 19 20  2  0  0  0
 20 21  1  0  0  0
 21 22  2  0  0  0
 22 23  1  0  0  0
 23 24  2  0  0  0
 23 25  1  0  0  0
 22 26  1  0  0  0
 26 27  2  0  0  0
  9  4  1  0  0  0
 27 19  1  0  0  0
 15  6  1  0  0  0
 25 28  1  0  0  0
M  END
>  <CHROM.0>
-159.28942880,-179.43205737,-64.10464697,68.10679415,-176.06836854,-59.80239682
-177.09172518,69.96031743

>  <CHROM.1>
-173.27075261,-143.99336034,2.99074208,-3.41666728,-2.17799933,39.97774095
15.30016252,84.18932798,2.66903018,0.56396866,0.24010628

>  <RI>
3.35367e+07

>  <Rbt.Current_Directory>
/extra/banzai2/j5wagner/CELPP/2016_10_17_rdock_implementation/normal_run/tutorialVideo/tutorial_rdock_implementation/full_week_run/4-docking/1fcz/hiTanimoto_1fcz_docking

>  <Rbt.Executable>
rbdock ($Id: //depot/dev/client3/rdock/2013.1/src/exe/rbdock.cxx#4 $)

>  <Rbt.Library>
libRbt.so (2013.1, Build901 2013/11/27)

>  <Rbt.Parameter_File>
/home/j5wagner/env_00/source/rDock/rDock_2013.1_src//data/scripts/dock.prm

>  <Rbt.Receptor>
/extra/banzai2/j5wagner/CELPP/2016_10_17_rdock_implementation/normal_run/tutorialVideo/tutorial_rdock_implementation/full_week_run/4-docking/1fcz/hiTanimoto_1fcz_tech_prep/rDockGridGenInput.prm

>  <SCORE>
-53.2759

>  <SCORE.INTER>
-31.4727

>  <SCORE.INTER.CONST>
1

>  <SCORE.INTER.POLAR>
-1.91657

>  <SCORE.INTER.REPUL>
0

>  <SCORE.INTER.ROT>
4

>  <SCORE.INTER.VDW>
-34.3564

>  <SCORE.INTER.norm>
-1.16566

>  <SCORE.INTRA>
-2.34496

>  <SCORE.INTRA.DIHEDRAL>
-5.63887

>  <SCORE.INTRA.DIHEDRAL.0>
10.7811

>  <SCORE.INTRA.POLAR>
0

>  <SCORE.INTRA.POLAR.0>
0

>  <SCORE.INTRA.REPUL>
0

>  <SCORE.INTRA.REPUL.0>
0

>  <SCORE.INTRA.VDW>
0.474478

>  <SCORE.INTRA.VDW.0>
-0.812999

>  <SCORE.INTRA.norm>
-0.0868502

>  <SCORE.RESTR>
0

>  <SCORE.RESTR.CAVITY>
0

>  <SCORE.RESTR.norm>
0

>  <SCORE.SYSTEM>
-19.4582

>  <SCORE.SYSTEM.CONST>
0

>  <SCORE.SYSTEM.DIHEDRAL>
1.55358

>  <SCORE.SYSTEM.POLAR>
-4.93402

>  <SCORE.SYSTEM.VDW>
-3.45929

>  <SCORE.SYSTEM.norm>
-0.720674

>  <SCORE.heavy>
27

>  <SCORE.norm>
-1.97318

$$$$

  rDOCK(R)          3D
libRbt.so/2013.1/901 2013/11/27
 28 30  0  0  0  0  0  0  0  0999 V2000
   38.6468   13.8502   85.3901 C   0  0  0  0  0  0
   39.6882   13.1009   84.6557 C   0  0  0  0  0  0
   39.5997   11.8442   84.6198 O   0  0  0  0  0  0
   40.8335   13.7580   83.9802 C   0  0  0  0  0  0
   41.3109   13.2562   82.7636 C   0  0  0  0  0  0
   42.4213   13.8348   82.1066 C   0  0  0  0  0  0
   43.0099   15.0096   82.6651 C   0  0  0  0  0  0
   42.5538   15.4586   83.9237 C   0  0  0  0  0  0
   41.4870   14.8421   84.5700 C   0  0  0  0  0  0
   44.1739   15.7503   81.9893 C   0  0  0  0  0  0
   43.9161   17.2778   81.9730 C   0  0  0  0  0  0
   45.4728   15.4761   82.7813 C   0  0  0  0  0  0
   44.3483   15.3096   80.5147 C   0  0  0  0  0  0
   44.2746   13.7964   80.3525 C   0  0  0  0  0  0
   42.8984   13.2266   80.7784 C   0  0  0  0  0  0
   43.0700   11.6921   80.9073 C   0  0  0  0  0  0
   41.8446   13.5167   79.6850 C   0  0  0  0  0  0
   38.6003   15.1905   85.4165 C   0  0  0  0  0  0
   37.5648   15.9684   86.1404 C   0  0  0  0  0  0
   36.5505   15.3590   86.9036 C   0  0  0  0  0  0
   35.5918   16.1365   87.5606 C   0  0  0  0  0  0
   35.6220   17.5386   87.4683 C   0  0  0  0  0  0
   34.6094   18.3760   88.1568 C   0  0  0  0  0  0
   33.6731   17.8258   88.7955 O   0  0  0  0  0  0
   34.6510   19.7690   88.1072 O   0  0  0  0  0  0
   36.6180   18.1437   86.6835 C   0  0  0  0  0  0
   37.5763   17.3669   86.0270 C   0  0  0  0  0  0
   35.3522   20.2755   87.5824 H   0  0  0  0  0  0
  1  2  1  0  0  0
  2  3  2  0  0  0
  2  4  1  0  0  0
  4  5  2  0  0  0
  5  6  1  0  0  0
  6  7  2  0  0  0
  7  8  1  0  0  0
  8  9  2  0  0  0
  7 10  1  0  0  0
 10 11  1  0  0  0
 10 12  1  0  0  0
 10 13  1  0  0  0
 13 14  1  0  0  0
 14 15  1  0  0  0
 15 16  1  0  0  0
 15 17  1  0  0  0
  1 18  2  0  0  0
 18 19  1  0  0  0
 19 20  2  0  0  0
 20 21  1  0  0  0
 21 22  2  0  0  0
 22 23  1  0  0  0
 23 24  2  0  0  0
 23 25  1  0  0  0
 22 26  1  0  0  0
 26 27  2  0  0  0
  9  4  1  0  0  0
 27 19  1  0  0  0
 15  6  1  0  0  0
 25 28  1  0  0  0
M  END
>  <CHROM.0>
-156.39598617,178.66982423,-65.21989546,68.72476571,-177.07155312,-176.94234628
-179.42031982,70.47873906

>  <CHROM.1>
-175.59644469,-143.15120501,1.89436096,-2.74304236,1.75534952,40.01080684
15.30866107,84.25218047,2.68790255,0.57543083,0.22604519

>  <RI>
3.35367e+07

>  <Rbt.Current_Directory>
/extra/banzai2/j5wagner/CELPP/2016_10_17_rdock_implementation/normal_run/tutorialVideo/tutorial_rdock_implementation/full_week_run/4-docking/1fcz/hiTanimoto_1fcz_docking

>  <Rbt.Executable>
rbdock ($Id: //depot/dev/client3/rdock/2013.1/src/exe/rbdock.cxx#4 $)

>  <Rbt.Library>
libRbt.so (2013.1, Build901 2013/11/27)

>  <Rbt.Parameter_File>
/home/j5wagner/env_00/source/rDock/rDock_2013.1_src//data/scripts/dock.prm

>  <Rbt.Receptor>
/extra/banzai2/j5wagner/CELPP/2016_10_17_rdock_implementation/normal_run/tutorialVideo/tutorial_rdock_implementation/full_week_run/4-docking/1fcz/hiTanimoto_1fcz_tech_prep/rDockGridGenInput.prm

>  <SCORE>
-53.1964

>  <SCORE.INTER>
-31.4543

>  <SCORE.INTER.CONST>
1

>  <SCORE.INTER.POLAR>
-1.86606

>  <SCORE.INTER.REPUL>
0

>  <SCORE.INTER.ROT>
4

>  <SCORE.INTER.VDW>
-34.5097

>  <SCORE.INTER.norm>
-1.16497

>  <SCORE.INTRA>
-2.31374

>  <SCORE.INTRA.DIHEDRAL>
-5.58939

>  <SCORE.INTRA.DIHEDRAL.0>
10.7811

>  <SCORE.INTRA.POLAR>
0

>  <SCORE.INTRA.POLAR.0>
0

>  <SCORE.INTRA.REPUL>
0

>  <SCORE.INTRA.REPUL.0>
0

>  <SCORE.INTRA.VDW>
0.480955

>  <SCORE.INTRA.VDW.0>
-0.812999

>  <SCORE.INTRA.norm>
-0.0856941

>  <SCORE.RESTR>
0

>  <SCORE.RESTR.CAVITY>
0

>  <SCORE.RESTR.norm>
0

>  <SCORE.SYSTEM>
-19.4283

>  <SCORE.SYSTEM.CONST>
0

>  <SCORE.SYSTEM.DIHEDRAL>
1.84076

>  <SCORE.SYSTEM.POLAR>
-4.94224

>  <SCORE.SYSTEM.VDW>
-3.54509

>  <SCORE.SYSTEM.norm>
-0.719568

>  <SCORE.heavy>
27

>  <SCORE.norm>
-1.97024

$$$$

  rDOCK(R)          3D
libRbt.so/2013.1/901 2013/11/27
 28 30  0  0  0  0  0  0  0  0999 V2000
   38.5923   14.0002   85.1619 C   0  0  0  0  0  0
   39.5798   13.1721   84.4378 C   0  0  0  0  0  0
   39.3597   11.9347   84.3432 O   0  0  0  0  0  0
   40.8177   13.7273   83.8385 C   0  0  0  0  0  0
   41.3125   13.2008   82.6395 C   0  0  0  0  0  0
   42.5073   13.6811   82.0551 C   0  0  0  0  0  0
   43.1719   14.7860   82.6682 C   0  0  0  0  0  0
   42.6909   15.2573   83.9092 C   0  0  0  0  0  0
   41.5366   14.7354   84.4845 C   0  0  0  0  0  0
   44.4362   15.4226   82.0712 C   0  0  0  0  0  0
   44.3246   16.9679   82.0720 C   0  0  0  0  0  0
   45.6575   15.0143   82.9264 C   0  0  0  0  0  0
   44.6500   14.9897   80.5996 C   0  0  0  0  0  0
   44.4433   13.4929   80.4029 C   0  0  0  0  0  0
   42.9981   13.0503   80.7424 C   0  0  0  0  0  0
   43.0170   11.5047   80.8493 C   0  0  0  0  0  0
   42.0386   13.4558   79.6000 C   0  0  0  0  0  0
   38.7261   15.3269   85.3075 C   0  0  0  0  0  0
   37.7491   16.1833   86.0241 C   0  0  0  0  0  0
   37.9010   17.5785   86.1389 C   0  0  0  0  0  0
   36.9563   18.3411   86.8326 C   0  0  0  0  0  0
   35.8411   17.7285   87.4296 C   0  0  0  0  0  0
   34.8328   18.5242   88.1717 C   0  0  0  0  0  0
   35.0535   19.7401   88.4171 O   0  0  0  0  0  0
   33.6410   17.9604   88.6259 O   0  0  0  0  0  0
   35.7060   16.3329   87.3380 C   0  0  0  0  0  0
   36.6498   15.5707   86.6447 C   0  0  0  0  0  0
   33.4167   16.9822   88.4981 H   0  0  0  0  0  0
  1  2  1  0  0  0
  2  3  2  0  0  0
  2  4  1  0  0  0
  4  5  2  0  0  0
  5  6  1  0  0  0
  6  7  2  0  0  0
  7  8  1  0  0  0
  8  9  2  0  0  0
  7 10  1  0  0  0
 10 11  1  0  0  0
 10 12  1  0  0  0
 10 13  1  0  0  0
 13 14  1  0  0  0
 14 15  1  0  0  0
 15 16  1  0  0  0
 15 17  1  0  0  0
  1 18  2  0  0  0
 18 19  1  0  0  0
 19 20  2  0  0  0
 20 21  1  0  0  0
 21 22  2  0  0  0
 22 23  1  0  0  0
 23 24  2  0  0  0
 23 25  1  0  0  0
 22 26  1  0  0  0
 26 27  2  0  0  0
  9  4  1  0  0  0
 27 19  1  0  0  0
 15  6  1  0  0  0
 25 28  1  0  0  0
M  END
>  <CHROM.0>
-158.78272831,55.97689686,-66.03027604,69.18285959,-57.19352692,-55.30114913
63.19304392,71.01384089

>  <CHROM.1>
-179.33067426,-144.86103773,-178.69069886,-8.84550865,1.85399364,40.13751080
15.25876978,84.21343331,2.58505185,0.49703951,0.37073048

>  <RI>
3.35367e+07

>  <Rbt.Current_Directory>
/extra/banzai2/j5wagner/CELPP/2016_10_17_rdock_implementation/normal_run/tutorialVideo/tutorial_rdock_implementation/full_week_run/4-docking/1fcz/hiTanimoto_1fcz_docking

>  <Rbt.Executable>
rbdock ($Id: //depot/dev/client3/rdock/2013.1/src/exe/rbdock.cxx#4 $)

>  <Rbt.Library>
libRbt.so (2013.1, Build901 2013/11/27)

>  <Rbt.Parameter_File>
/home/j5wagner/env_00/source/rDock/rDock_2013.1_src//data/scripts/dock.prm

>  <Rbt.Receptor>
/extra/banzai2/j5wagner/CELPP/2016_10_17_rdock_implementation/normal_run/tutorialVideo/tutorial_rdock_implementation/full_week_run/4-docking/1fcz/hiTanimoto_1fcz_tech_prep/rDockGridGenInput.prm

>  <SCORE>
-53.0654

>  <SCORE.INTER>
-31.6618

>  <SCORE.INTER.CONST>
1

>  <SCORE.INTER.POLAR>
-2.02452

>  <SCORE.INTER.REPUL>
0

>  <SCORE.INTER.ROT>
4

>  <SCORE.INTER.VDW>
-34.1785

>  <SCORE.INTER.norm>
-1.17266

>  <SCORE.INTRA>
-1.98798

>  <SCORE.INTRA.DIHEDRAL>
-5.75683

>  <SCORE.INTRA.DIHEDRAL.0>
10.7811

>  <SCORE.INTRA.POLAR>
0

>  <SCORE.INTRA.POLAR.0>
0

>  <SCORE.INTRA.REPUL>
0

>  <SCORE.INTRA.REPUL.0>
0

>  <SCORE.INTRA.VDW>
0.890432

>  <SCORE.INTRA.VDW.0>
-0.812999

>  <SCORE.INTRA.norm>
-0.073629

>  <SCORE.RESTR>
0

>  <SCORE.RESTR.CAVITY>
0

>  <SCORE.RESTR.norm>
0

>  <SCORE.SYSTEM>
-19.4156

>  <SCORE.SYSTEM.CONST>
0

>  <SCORE.SYSTEM.DIHEDRAL>
1.95161

>  <SCORE.SYSTEM.POLAR>
-4.96563

>  <SCORE.SYSTEM.VDW>
-3.50823

>  <SCORE.SYSTEM.norm>
-0.719096

>  <SCORE.heavy>
27

>  <SCORE.norm>
-1.96539

$$$$

  rDOCK(R)          3D
libRbt.so/2013.1/901 2013/11/27
 28 30  0  0  0  0  0  0  0  0999 V2000
   38.5638   13.8573   85.2074 C   0  0  0  0  0  0
   39.5911   13.1041   84.4572 C   0  0  0  0  0  0
   39.4487   11.8566   84.3472 O   0  0  0  0  0  0
   40.7820   13.7456   83.8490 C   0  0  0  0  0  0
   41.2995   13.2600   82.6423 C   0  0  0  0  0  0
   42.4528   13.8236   82.0491 C   0  0  0  0  0  0
   43.0465   14.9684   82.6618 C   0  0  0  0  0  0
   42.5470   15.3996   83.9100 C   0  0  0  0  0  0
   41.4369   14.7972   84.4936 C   0  0  0  0  0  0
   44.2584   15.6929   82.0561 C   0  0  0  0  0  0
   44.0415   17.2268   82.0666 C   0  0  0  0  0  0
   45.5132   15.3647   82.8971 C   0  0  0  0  0  0
   44.4863   15.2828   80.5801 C   0  0  0  0  0  0
   44.3803   13.7764   80.3771 C   0  0  0  0  0  0
   42.9722   13.2343   80.7281 C   0  0  0  0  0  0
   43.0977   11.6931   80.8262 C   0  0  0  0  0  0
   41.9758   13.5789   79.5974 C   0  0  0  0  0  0
   38.5601   15.1963   85.2869 C   0  0  0  0  0  0
   37.5398   15.9783   86.0278 C   0  0  0  0  0  0
   36.4994   15.3725   86.7579 C   0  0  0  0  0  0
   35.5566   16.1542   87.4328 C   0  0  0  0  0  0
   35.6291   17.5572   87.3916 C   0  0  0  0  0  0
   34.6339   18.3992   88.0995 C   0  0  0  0  0  0
   33.7050   17.8533   88.7526 O   0  0  0  0  0  0
   34.6838   19.7920   88.0530 O   0  0  0  0  0  0
   36.6514   18.1600   86.6395 C   0  0  0  0  0  0
   37.5938   17.3790   85.9652 C   0  0  0  0  0  0
   35.3942   20.2956   87.5379 H   0  0  0  0  0  0
  1  2  1  0  0  0
  2  3  2  0  0  0
  2  4  1  0  0  0
  4  5  2  0  0  0
  5  6  1  0  0  0
  6  7  2  0  0  0
  7  8  1  0  0  0
  8  9  2  0  0  0
  7 10  1  0  0  0
 10 11  1  0  0  0
 10 12  1  0  0  0
 10 13  1  0  0  0
 13 14  1  0  0  0
 14 15  1  0  0  0
 15 16  1  0  0  0
 15 17  1  0  0  0
  1 18  2  0  0  0
 18 19  1  0  0  0
 19 20  2  0  0  0
 20 21  1  0  0  0
 21 22  2  0  0  0
 22 23  1  0  0  0
 23 24  2  0  0  0
 23 25  1  0  0  0
 22 26  1  0  0  0
 26 27  2  0  0  0
  9  4  1  0  0  0
 27 19  1  0  0  0
 15  6  1  0  0  0
 25 28  1  0  0  0
M  END
>  <CHROM.0>
25.61048191,-61.53273219,-63.48912743,67.06054492,-174.99759598,-56.82959095
64.73006711,72.42323529

>  <CHROM.1>
-174.21583526,-145.50865198,2.21125262,0.07604255,0.07062411,40.02467050
15.30259794,84.18791268,2.65409433,0.53970481,0.28576296

>  <RI>
3.35367e+07

>  <Rbt.Current_Directory>
/extra/banzai2/j5wagner/CELPP/2016_10_17_rdock_implementation/normal_run/tutorialVideo/tutorial_rdock_implementation/full_week_run/4-docking/1fcz/hiTanimoto_1fcz_docking

>  <Rbt.Executable>
rbdock ($Id: //depot/dev/client3/rdock/2013.1/src/exe/rbdock.cxx#4 $)

>  <Rbt.Library>
libRbt.so (2013.1, Build901 2013/11/27)

>  <Rbt.Parameter_File>
/home/j5wagner/env_00/source/rDock/rDock_2013.1_src//data/scripts/dock.prm

>  <Rbt.Receptor>
/extra/banzai2/j5wagner/CELPP/2016_10_17_rdock_implementation/normal_run/tutorialVideo/tutorial_rdock_implementation/full_week_run/4-docking/1fcz/hiTanimoto_1fcz_tech_prep/rDockGridGenInput.prm

>  <SCORE>
-52.4866

>  <SCORE.INTER>
-33.8585

>  <SCORE.INTER.CONST>
1

>  <SCORE.INTER.POLAR>
-2.64016

>  <SCORE.INTER.REPUL>
0

>  <SCORE.INTER.ROT>
4

>  <SCORE.INTER.VDW>
-34.282

>  <SCORE.INTER.norm>
-1.25402

>  <SCORE.INTRA>
-2.49764

>  <SCORE.INTRA.DIHEDRAL>
-6.10398

>  <SCORE.INTRA.DIHEDRAL.0>
10.7811

>  <SCORE.INTRA.POLAR>
0

>  <SCORE.INTRA.POLAR.0>
0

>  <SCORE.INTRA.REPUL>
0

>  <SCORE.INTRA.REPUL.0>
0

>  <SCORE.INTRA.VDW>
0.554349

>  <SCORE.INTRA.VDW.0>
-0.812999

>  <SCORE.INTRA.norm>
-0.0925052

>  <SCORE.RESTR>
0

>  <SCORE.RESTR.CAVITY>
0

>  <SCORE.RESTR.norm>
0

>  <SCORE.SYSTEM>
-16.1305

>  <SCORE.SYSTEM.CONST>
0

>  <SCORE.SYSTEM.DIHEDRAL>
2.12562

>  <SCORE.SYSTEM.POLAR>
-4.41523

>  <SCORE.SYSTEM.REPUL>
0.202354

>  <SCORE.SYSTEM.VDW>
-3.19326

>  <SCORE.SYSTEM.norm>
-0.597424

>  <SCORE.heavy>
27

>  <SCORE.norm>
-1.94395

$$$$

  rDOCK(R)          3D
libRbt.so/2013.1/901 2013/11/27
 28 30  0  0  0  0  0  0  0  0999 V2000
   39.3440   14.8706   84.9224 C   0  0  0  0  0  0
   40.2902   13.8715   84.3824 C   0  0  0  0  0  0
   40.0220   12.6512   84.5484 O   0  0  0  0  0  0
   41.5407   14.2404   83.6752 C   0  0  0  0  0  0
   41.9809   13.4778   82.5869 C   0  0  0  0  0  0
   43.1849   13.7781   81.9088 C   0  0  0  0  0  0
   43.9183   14.9390   82.2999 C   0  0  0  0  0  0
   43.4901   15.6543   83.4395 C   0  0  0  0  0  0
   42.3241   15.3092   84.1158 C   0  0  0  0  0  0
   45.1994   15.3868   81.5798 C   0  0  0  0  0  0
   45.1662   16.9099   81.2984 C   0  0  0  0  0  0
   46.4175   15.0762   82.4795 C   0  0  0  0  0  0
   45.3575   14.6815   80.2100 C   0  0  0  0  0  0
   45.0709   13.1873   80.2942 C   0  0  0  0  0  0
   43.6132   12.8927   80.7280 C   0  0  0  0  0  0
   43.5563   11.3939   81.1165 C   0  0  0  0  0  0
   42.6498   13.1338   79.5431 C   0  0  0  0  0  0
   38.3807   14.5562   85.8014 C   0  0  0  0  0  0
   37.4210   15.5381   86.3636 C   0  0  0  0  0  0
   37.4596   16.9087   86.0433 C   0  0  0  0  0  0
   36.5374   17.7961   86.6068 C   0  0  0  0  0  0
   35.5585   17.3363   87.5045 C   0  0  0  0  0  0
   34.5762   18.2665   88.1128 C   0  0  0  0  0  0
   33.6203   17.8084   88.7939 O   0  0  0  0  0  0
   34.6677   19.6474   87.9411 O   0  0  0  0  0  0
   35.5392   15.9731   87.8445 C   0  0  0  0  0  0
   36.4606   15.0862   87.2814 C   0  0  0  0  0  0
   35.4098   20.0830   87.4092 H   0  0  0  0  0  0
  1  2  1  0  0  0
  2  3  2  0  0  0
  2  4  1  0  0  0
  4  5  2  0  0  0
  5  6  1  0  0  0
  6  7  2  0  0  0
  7  8  1  0  0  0
  8  9  2  0  0  0
  7 10  1  0  0  0
 10 11  1  0  0  0
 10 12  1  0  0  0
 10 13  1  0  0  0
 13 14  1  0  0  0
 14 15  1  0  0  0
 15 16  1  0  0  0
 15 17  1  0  0  0
  1 18  2  0  0  0
 18 19  1  0  0  0
 19 20  2  0  0  0
 20 21  1  0  0  0
 21 22  2  0  0  0
 22 23  1  0  0  0
 23 24  2  0  0  0
 23 25  1  0  0  0
 22 26  1  0  0  0
 26 27  2  0  0  0
  9  4  1  0  0  0
 27 19  1  0  0  0
 15  6  1  0  0  0
 25 28  1  0  0  0
M  END
>  <CHROM.0>
-159.51170381,-179.57561073,-64.76863763,68.25385062,62.59202574,61.59620522
63.81296405,67.53005358

>  <CHROM.1>
14.09707900,-143.12966177,-1.59706829,172.07620772,-0.92839822,40.48368811
15.22026067,84.12205628,2.70133387,0.52576256,0.27719541

>  <RI>
3.35367e+07

>  <Rbt.Current_Directory>
/extra/banzai2/j5wagner/CELPP/2016_10_17_rdock_implementation/normal_run/tutorialVideo/tutorial_rdock_implementation/full_week_run/4-docking/1fcz/hiTanimoto_1fcz_docking

>  <Rbt.Executable>
rbdock ($Id: //depot/dev/client3/rdock/2013.1/src/exe/rbdock.cxx#4 $)

>  <Rbt.Library>
libRbt.so (2013.1, Build901 2013/11/27)

>  <Rbt.Parameter_File>
/home/j5wagner/env_00/source/rDock/rDock_2013.1_src//data/scripts/dock.prm

>  <Rbt.Receptor>
/extra/banzai2/j5wagner/CELPP/2016_10_17_rdock_implementation/normal_run/tutorialVideo/tutorial_rdock_implementation/full_week_run/4-docking/1fcz/hiTanimoto_1fcz_tech_prep/rDockGridGenInput.prm

>  <SCORE>
-52.3609

>  <SCORE.INTER>
-30.9724

>  <SCORE.INTER.CONST>
1

>  <SCORE.INTER.POLAR>
-2.54277

>  <SCORE.INTER.REPUL>
0

>  <SCORE.INTER.ROT>
4

>  <SCORE.INTER.VDW>
-31.727

>  <SCORE.INTER.norm>
-1.14713

>  <SCORE.INTRA>
-1.91925

>  <SCORE.INTRA.DIHEDRAL>
-4.78323

>  <SCORE.INTRA.DIHEDRAL.0>
10.7811

>  <SCORE.INTRA.POLAR>
0

>  <SCORE.INTRA.POLAR.0>
0

>  <SCORE.INTRA.REPUL>
0

>  <SCORE.INTRA.REPUL.0>
0

>  <SCORE.INTRA.VDW>
0.472363

>  <SCORE.INTRA.VDW.0>
-0.812999

>  <SCORE.INTRA.norm>
-0.0710834

>  <SCORE.RESTR>
0

>  <SCORE.RESTR.CAVITY>
0

>  <SCORE.RESTR.norm>
0

>  <SCORE.SYSTEM>
-19.4692

>  <SCORE.SYSTEM.CONST>
0

>  <SCORE.SYSTEM.DIHEDRAL>
1.39373

>  <SCORE.SYSTEM.POLAR>
-4.94025

>  <SCORE.SYSTEM.VDW>
-3.36926

>  <SCORE.SYSTEM.norm>
-0.721083

>  <SCORE.heavy>
27

>  <SCORE.norm>
-1.93929

$$$$

  rDOCK(R)          3D
libRbt.so/2013.1/901 2013/11/27
 28 30  0  0  0  0  0  0  0  0999 V2000
   39.3966   14.8976   85.0096 C   0  0  0  0  0  0
   40.3438   13.8984   84.4712 C   0  0  0  0  0  0
   40.0822   12.6783   84.6486 O   0  0  0  0  0  0
   41.5879   14.2673   83.7529 C   0  0  0  0  0  0
   42.0222   13.5006   82.6652 C   0  0  0  0  0  0
   43.2203   13.8009   81.9767 C   0  0  0  0  0  0
   43.9532   14.9657   82.3565 C   0  0  0  0  0  0
   43.5315   15.6855   83.4957 C   0  0  0  0  0  0
   42.3716   15.3405   84.1824 C   0  0  0  0  0  0
   45.2277   15.4136   81.6247 C   0  0  0  0  0  0
   45.1880   16.9352   81.3360 C   0  0  0  0  0  0
   46.4533   15.1109   82.5168 C   0  0  0  0  0  0
   45.3776   14.7019   80.2572 C   0  0  0  0  0  0
   45.0959   13.2074   80.3509 C   0  0  0  0  0  0
   43.6423   12.9108   80.7970 C   0  0  0  0  0  0
   43.5925   11.4138   81.1934 C   0  0  0  0  0  0
   42.6695   13.1434   79.6182 C   0  0  0  0  0  0
   38.3960   14.5733   85.8420 C   0  0  0  0  0  0
   37.4341   15.5548   86.4015 C   0  0  0  0  0  0
   37.4705   16.9247   86.0781 C   0  0  0  0  0  0
   36.5464   17.8117   86.6391 C   0  0  0  0  0  0
   35.5679   17.3522   87.5372 C   0  0  0  0  0  0
   34.5835   18.2820   88.1429 C   0  0  0  0  0  0
   33.6266   17.8236   88.8223 O   0  0  0  0  0  0
   34.6742   19.6629   87.9705 O   0  0  0  0  0  0
   35.5508   15.9898   87.8803 C   0  0  0  0  0  0
   36.4740   15.1033   87.3197 C   0  0  0  0  0  0
   35.4027   20.0970   87.4188 H   0  0  0  0  0  0
  1  2  1  0  0  0
  2  3  2  0  0  0
  2  4  1  0  0  0
  4  5  2  0  0  0
  5  6  1  0  0  0
  6  7  2  0  0  0
  7  8  1  0  0  0
  8  9  2  0  0  0
  7 10  1  0  0  0
 10 11  1  0  0  0
 10 12  1  0  0  0
 10 13  1  0  0  0
 13 14  1  0  0  0
 14 15  1  0  0  0
 15 16  1  0  0  0
 15 17  1  0  0  0
  1 18  2  0  0  0
 18 19  1  0  0  0
 19 20  2  0  0  0
 20 21  1  0  0  0
 21 22  2  0  0  0
 22 23  1  0  0  0
 23 24  2  0  0  0
 23 25  1  0  0  0
 22 26  1  0  0  0
 26 27  2  0  0  0
  9  4  1  0  0  0
 27 19  1  0  0  0
 15  6  1  0  0  0
 25 28  1  0  0  0
M  END
>  <CHROM.0>
-161.08064021,178.37927175,-64.38829903,66.78661562,63.20301759,-178.35521402
63.31318507,69.57604760

>  <CHROM.1>
10.43030823,-142.93040947,1.53197499,171.93832796,0.78601720,40.51062611
15.24162882,84.17611469,2.70861667,0.52724224,0.26596606

>  <RI>
3.35367e+07

>  <Rbt.Current_Directory>
/extra/banzai2/j5wagner/CELPP/2016_10_17_rdock_implementation/normal_run/tutorialVideo/tutorial_rdock_implementation/full_week_run/4-docking/1fcz/hiTanimoto_1fcz_docking

>  <Rbt.Executable>
rbdock ($Id: //depot/dev/client3/rdock/2013.1/src/exe/rbdock.cxx#4 $)

>  <Rbt.Library>
libRbt.so (2013.1, Build901 2013/11/27)

>  <Rbt.Parameter_File>
/home/j5wagner/env_00/source/rDock/rDock_2013.1_src//data/scripts/dock.prm

>  <Rbt.Receptor>
/extra/banzai2/j5wagner/CELPP/2016_10_17_rdock_implementation/normal_run/tutorialVideo/tutorial_rdock_implementation/full_week_run/4-docking/1fcz/hiTanimoto_1fcz_tech_prep/rDockGridGenInput.prm

>  <SCORE>
-52.314

>  <SCORE.INTER>
-30.859

>  <SCORE.INTER.CONST>
1

>  <SCORE.INTER.POLAR>
-2.49965

>  <SCORE.INTER.REPUL>
0

>  <SCORE.INTER.ROT>
4

>  <SCORE.INTER.VDW>
-31.7602

>  <SCORE.INTER.norm>
-1.14293

>  <SCORE.INTRA>
-2.02186

>  <SCORE.INTRA.DIHEDRAL>
-5.01372

>  <SCORE.INTRA.DIHEDRAL.0>
10.7811

>  <SCORE.INTRA.POLAR>
0

>  <SCORE.INTRA.POLAR.0>
0

>  <SCORE.INTRA.REPUL>
0

>  <SCORE.INTRA.REPUL.0>
0

>  <SCORE.INTRA.VDW>
0.485005

>  <SCORE.INTRA.VDW.0>
-0.812999

>  <SCORE.INTRA.norm>
-0.0748836

>  <SCORE.RESTR>
0

>  <SCORE.RESTR.CAVITY>
0

>  <SCORE.RESTR.norm>
0

>  <SCORE.SYSTEM>
-19.4331

>  <SCORE.SYSTEM.CONST>
0

>  <SCORE.SYSTEM.DIHEDRAL>
1.35277

>  <SCORE.SYSTEM.POLAR>
-4.91848

>  <SCORE.SYSTEM.VDW>
-3.38668

>  <SCORE.SYSTEM.norm>
-0.719745

>  <SCORE.heavy>
27

>  <SCORE.norm>
-1.93755

$$$$

  rDOCK(R)          3D
libRbt.so/2013.1/901 2013/11/27
 28 30  0  0  0  0  0  0  0  0999 V2000
   38.7021   13.9142   85.1510 C   0  0  0  0  0  0
   39.7280   13.1536   84.4065 C   0  0  0  0  0  0
   39.5785   11.9068   84.2979 O   0  0  0  0  0  0
   40.9253   13.7868   83.8022 C   0  0  0  0  0  0
   41.4917   13.2481   82.6408 C   0  0  0  0  0  0
   42.6525   13.8036   82.0546 C   0  0  0  0  0  0
   43.2030   14.9922   82.6225 C   0  0  0  0  0  0
   42.6544   15.4793   83.8289 C   0  0  0  0  0  0
   41.5378   14.8855   84.4090 C   0  0  0  0  0  0
   44.4196   15.7089   82.0170 C   0  0  0  0  0  0
   44.1722   17.2362   81.9369 C   0  0  0  0  0  0
   45.6524   15.4536   82.9140 C   0  0  0  0  0  0
   44.7039   15.2248   80.5735 C   0  0  0  0  0  0
   44.6345   13.7077   80.4497 C   0  0  0  0  0  0
   43.2265   13.1552   80.7850 C   0  0  0  0  0  0
   43.3792   11.6246   80.9709 C   0  0  0  0  0  0
   42.2612   13.4169   79.6061 C   0  0  0  0  0  0
   38.6870   15.2546   85.2006 C   0  0  0  0  0  0
   37.6678   16.0439   85.9351 C   0  0  0  0  0  0
   36.6257   15.4454   86.6690 C   0  0  0  0  0  0
   35.6840   16.2339   87.3376 C   0  0  0  0  0  0
   35.7593   17.6364   87.2862 C   0  0  0  0  0  0
   34.7653   18.4854   87.9873 C   0  0  0  0  0  0
   34.9130   19.7365   88.0040 O   0  0  0  0  0  0
   33.6675   17.9372   88.6499 O   0  0  0  0  0  0
   36.7832   18.2317   86.5304 C   0  0  0  0  0  0
   37.7244   17.4441   85.8624 C   0  0  0  0  0  0
   33.5259   16.9393   88.7377 H   0  0  0  0  0  0
  1  2  1  0  0  0
  2  3  2  0  0  0
  2  4  1  0  0  0
  4  5  2  0  0  0
  5  6  1  0  0  0
  6  7  2  0  0  0
  7  8  1  0  0  0
  8  9  2  0  0  0
  7 10  1  0  0  0
 10 11  1  0  0  0
 10 12  1  0  0  0
 10 13  1  0  0  0
 13 14  1  0  0  0
 14 15  1  0  0  0
 15 16  1  0  0  0
 15 17  1  0  0  0
  1 18  2  0  0  0
 18 19  1  0  0  0
 19 20  2  0  0  0
 20 21  1  0  0  0
 21 22  2  0  0  0
 22 23  1  0  0  0
 23 24  2  0  0  0
 23 25  1  0  0  0
 22 26  1  0  0  0
 26 27  2  0  0  0
  9  4  1  0  0  0
 27 19  1  0  0  0
 15  6  1  0  0  0
 25 28  1  0  0  0
M  END
>  <CHROM.0>
-157.87974944,60.67465561,-65.89396505,-55.77490287,-178.35356151,61.01171515
67.40916449,70.38479404

>  <CHROM.1>
-172.50305226,-149.25184121,0.94731646,174.88598509,4.07180325,40.17683415
15.31518173,84.14720917,2.65814535,0.52843849,0.27926603

>  <RI>
3.35367e+07

>  <Rbt.Current_Directory>
/extra/banzai2/j5wagner/CELPP/2016_10_17_rdock_implementation/normal_run/tutorialVideo/tutorial_rdock_implementation/full_week_run/4-docking/1fcz/hiTanimoto_1fcz_docking

>  <Rbt.Executable>
rbdock ($Id: //depot/dev/client3/rdock/2013.1/src/exe/rbdock.cxx#4 $)

>  <Rbt.Library>
libRbt.so (2013.1, Build901 2013/11/27)

>  <Rbt.Parameter_File>
/home/j5wagner/env_00/source/rDock/rDock_2013.1_src//data/scripts/dock.prm

>  <Rbt.Receptor>
/extra/banzai2/j5wagner/CELPP/2016_10_17_rdock_implementation/normal_run/tutorialVideo/tutorial_rdock_implementation/full_week_run/4-docking/1fcz/hiTanimoto_1fcz_tech_prep/rDockGridGenInput.prm

>  <SCORE>
-52.1835

>  <SCORE.INTER>
-31.3503

>  <SCORE.INTER.CONST>
1

>  <SCORE.INTER.POLAR>
-1.97452

>  <SCORE.INTER.REPUL>
0

>  <SCORE.INTER.ROT>
4

>  <SCORE.INTER.VDW>
-34.0369

>  <SCORE.INTER.norm>
-1.16112

>  <SCORE.INTRA>
-2.59512

>  <SCORE.INTRA.DIHEDRAL>
-6.57264

>  <SCORE.INTRA.DIHEDRAL.0>
10.7811

>  <SCORE.INTRA.POLAR>
0

>  <SCORE.INTRA.POLAR.0>
0

>  <SCORE.INTRA.REPUL>
0

>  <SCORE.INTRA.REPUL.0>
0

>  <SCORE.INTRA.VDW>
0.691202

>  <SCORE.INTRA.VDW.0>
-0.812999

>  <SCORE.INTRA.norm>
-0.0961154

>  <SCORE.RESTR>
0

>  <SCORE.RESTR.CAVITY>
0

>  <SCORE.RESTR.norm>
0

>  <SCORE.SYSTEM>
-18.2382

>  <SCORE.SYSTEM.CONST>
0

>  <SCORE.SYSTEM.DIHEDRAL>
1.72686

>  <SCORE.SYSTEM.POLAR>
-4.75145

>  <SCORE.SYSTEM.VDW>
-2.94666

>  <SCORE.SYSTEM.norm>
-0.675487

>  <SCORE.heavy>
27

>  <SCORE.norm>
-1.93272

$$$$

  rDOCK(R)          3D
libRbt.so/2013.1/901 2013/11/27
 28 30  0  0  0  0  0  0  0  0999 V2000
   38.5841   13.8706   85.3315 C   0  0  0  0  0  0
   39.6121   13.1119   84.5879 C   0  0  0  0  0  0
   39.4859   11.8600   84.5129 O   0  0  0  0  0  0
   40.7857   13.7532   83.9468 C   0  0  0  0  0  0
   41.2662   13.2710   82.7236 C   0  0  0  0  0  0
   42.4026   13.8346   82.0984 C   0  0  0  0  0  0
   43.0165   14.9759   82.6973 C   0  0  0  0  0  0
   42.5552   15.4036   83.9614 C   0  0  0  0  0  0
   41.4616   14.8013   84.5755 C   0  0  0  0  0  0
   44.2114   15.7002   82.0586 C   0  0  0  0  0  0
   43.9981   17.2346   82.0810 C   0  0  0  0  0  0
   45.4900   15.3666   82.8608 C   0  0  0  0  0  0
   44.3946   15.2951   80.5750 C   0  0  0  0  0  0
   44.2796   13.7896   80.3699 C   0  0  0  0  0  0
   42.8814   13.2490   80.7606 C   0  0  0  0  0  0
   43.0066   11.7072   80.8494 C   0  0  0  0  0  0
   41.8526   13.5996   79.6611 C   0  0  0  0  0  0
   38.5331   15.2110   85.3350 C   0  0  0  0  0  0
   37.5107   15.9982   86.0675 C   0  0  0  0  0  0
   36.4950   15.3978   86.8358 C   0  0  0  0  0  0
   35.5489   16.1839   87.5010 C   0  0  0  0  0  0
   35.5936   17.5858   87.4118 C   0  0  0  0  0  0
   34.5946   18.4324   88.1089 C   0  0  0  0  0  0
   33.6656   17.8907   88.7653 O   0  0  0  0  0  0
   34.6410   19.8248   88.0485 O   0  0  0  0  0  0
   36.5909   18.1821   86.6219 C   0  0  0  0  0  0
   37.5365   17.3968   85.9573 C   0  0  0  0  0  0
   35.3701   20.3255   87.5574 H   0  0  0  0  0  0
  1  2  1  0  0  0
  2  3  2  0  0  0
  2  4  1  0  0  0
  4  5  2  0  0  0
  5  6  1  0  0  0
  6  7  2  0  0  0
  7  8  1  0  0  0
  8  9  2  0  0  0
  7 10  1  0  0  0
 10 11  1  0  0  0
 10 12  1  0  0  0
 10 13  1  0  0  0
 13 14  1  0  0  0
 14 15  1  0  0  0
 15 16  1  0  0  0
 15 17  1  0  0  0
  1 18  2  0  0  0
 18 19  1  0  0  0
 19 20  2  0  0  0
 20 21  1  0  0  0
 21 22  2  0  0  0
 22 23  1  0  0  0
 23 24  2  0  0  0
 23 25  1  0  0  0
 22 26  1  0  0  0
 26 27  2  0  0  0
  9  4  1  0  0  0
 27 19  1  0  0  0
 15  6  1  0  0  0
 25 28  1  0  0  0
M  END
>  <CHROM.0>
-159.70048309,-179.52201731,-64.57655004,-54.43694878,-54.68259079,-57.91986432
-177.81168766,71.33976444

>  <CHROM.1>
-171.66966012,-143.33685606,0.21153306,-1.91996852,-2.17162420,39.98873365
15.31842616,84.22993525,2.66735394,0.55287293,0.25650511

>  <RI>
3.35367e+07

>  <Rbt.Current_Directory>
/extra/banzai2/j5wagner/CELPP/2016_10_17_rdock_implementation/normal_run/tutorialVideo/tutorial_rdock_implementation/full_week_run/4-docking/1fcz/hiTanimoto_1fcz_docking

>  <Rbt.Executable>
rbdock ($Id: //depot/dev/client3/rdock/2013.1/src/exe/rbdock.cxx#4 $)

>  <Rbt.Library>
libRbt.so (2013.1, Build901 2013/11/27)

>  <Rbt.Parameter_File>
/home/j5wagner/env_00/source/rDock/rDock_2013.1_src//data/scripts/dock.prm

>  <Rbt.Receptor>
/extra/banzai2/j5wagner/CELPP/2016_10_17_rdock_implementation/normal_run/tutorialVideo/tutorial_rdock_implementation/full_week_run/4-docking/1fcz/hiTanimoto_1fcz_tech_prep/rDockGridGenInput.prm

>  <SCORE>
-52.0807

>  <SCORE.INTER>
-31.6052

>  <SCORE.INTER.CONST>
1

>  <SCORE.INTER.POLAR>
-1.91018

>  <SCORE.INTER.REPUL>
0

>  <SCORE.INTER.ROT>
4

>  <SCORE.INTER.VDW>
-34.5106

>  <SCORE.INTER.norm>
-1.17056

>  <SCORE.INTRA>
-2.31845

>  <SCORE.INTRA.DIHEDRAL>
-5.49891

>  <SCORE.INTRA.DIHEDRAL.0>
10.7811

>  <SCORE.INTRA.POLAR>
0

>  <SCORE.INTRA.POLAR.0>
0

>  <SCORE.INTRA.REPUL>
0

>  <SCORE.INTRA.REPUL.0>
0

>  <SCORE.INTRA.VDW>
0.431008

>  <SCORE.INTRA.VDW.0>
-0.812999

>  <SCORE.INTRA.norm>
-0.0858684

>  <SCORE.RESTR>
0

>  <SCORE.RESTR.CAVITY>
0

>  <SCORE.RESTR.norm>
0

>  <SCORE.SYSTEM>
-18.1571

>  <SCORE.SYSTEM.CONST>
0

>  <SCORE.SYSTEM.DIHEDRAL>
1.54472

>  <SCORE.SYSTEM.POLAR>
-4.74099

>  <SCORE.SYSTEM.VDW>
-2.81006

>  <SCORE.SYSTEM.norm>
-0.672485

>  <SCORE.heavy>
27

>  <SCORE.norm>
-1.92892

$$$$

  rDOCK(R)          3D
libRbt.so/2013.1/901 2013/11/27
 28 30  0  0  0  0  0  0  0  0999 V2000
   38.5712   13.9929   85.1102 C   0  0  0  0  0  0
   39.5619   13.1614   84.3943 C   0  0  0  0  0  0
   39.3430   11.9233   84.3060 O   0  0  0  0  0  0
   40.8014   13.7142   83.7961 C   0  0  0  0  0  0
   41.3127   13.1669   82.6134 C   0  0  0  0  0  0
   42.5096   13.6447   82.0313 C   0  0  0  0  0  0
   43.1589   14.7676   82.6278 C   0  0  0  0  0  0
   42.6614   15.2607   83.8538 C   0  0  0  0  0  0
   41.5054   14.7414   84.4281 C   0  0  0  0  0  0
   44.4242   15.4020   82.0305 C   0  0  0  0  0  0
   44.3002   16.9460   81.9979 C   0  0  0  0  0  0
   45.6399   15.0216   82.9064 C   0  0  0  0  0  0
   44.6566   14.9403   80.5705 C   0  0  0  0  0  0
   44.4640   13.4381   80.4031 C   0  0  0  0  0  0
   43.0189   12.9907   80.7372 C   0  0  0  0  0  0
   43.0491   11.4479   80.8765 C   0  0  0  0  0  0
   42.0681   13.3644   79.5768 C   0  0  0  0  0  0
   38.6712   15.3278   85.1957 C   0  0  0  0  0  0
   37.6902   16.1875   85.9027 C   0  0  0  0  0  0
   37.8132   17.5887   85.9659 C   0  0  0  0  0  0
   36.8659   18.3546   86.6526 C   0  0  0  0  0  0
   35.7770   17.7393   87.2937 C   0  0  0  0  0  0
   34.7664   18.5385   88.0289 C   0  0  0  0  0  0
   34.9310   19.7801   88.1665 O   0  0  0  0  0  0
   33.6341   17.9519   88.5932 O   0  0  0  0  0  0
   35.6712   16.3388   87.2533 C   0  0  0  0  0  0
   36.6176   15.5733   86.5670 C   0  0  0  0  0  0
   33.4611   16.9557   88.5584 H   0  0  0  0  0  0
  1  2  1  0  0  0
  2  3  2  0  0  0
  2  4  1  0  0  0
  4  5  2  0  0  0
  5  6  1  0  0  0
  6  7  2  0  0  0
  7  8  1  0  0  0
  8  9  2  0  0  0
  7 10  1  0  0  0
 10 11  1  0  0  0
 10 12  1  0  0  0
 10 13  1  0  0  0
 13 14  1  0  0  0
 14 15  1  0  0  0
 15 16  1  0  0  0
 15 17  1  0  0  0
  1 18  2  0  0  0
 18 19  1  0  0  0
 19 20  2  0  0  0
 20 21  1  0  0  0
 21 22  2  0  0  0
 22 23  1  0  0  0
 23 24  2  0  0  0
 23 25  1  0  0  0
 22 26  1  0  0  0
 26 27  2  0  0  0
  9  4  1  0  0  0
 27 19  1  0  0  0
 15  6  1  0  0  0
 25 28  1  0  0  0
M  END
>  <CHROM.0>
-158.98814897,58.32633568,-64.48013050,-55.95452788,-55.15054283,63.70396067
66.05647459,72.80103736

>  <CHROM.1>
-176.16153280,-145.90083656,-179.37933481,-5.12986783,2.16477339,40.11187890
15.24456167,84.14550578,2.59741996,0.49713383,0.34323142

>  <RI>
3.35367e+07

>  <Rbt.Current_Directory>
/extra/banzai2/j5wagner/CELPP/2016_10_17_rdock_implementation/normal_run/tutorialVideo/tutorial_rdock_implementation/full_week_run/4-docking/1fcz/hiTanimoto_1fcz_docking

>  <Rbt.Executable>
rbdock ($Id: //depot/dev/client3/rdock/2013.1/src/exe/rbdock.cxx#4 $)

>  <Rbt.Library>
libRbt.so (2013.1, Build901 2013/11/27)

>  <Rbt.Parameter_File>
/home/j5wagner/env_00/source/rDock/rDock_2013.1_src//data/scripts/dock.prm

>  <Rbt.Receptor>
/extra/banzai2/j5wagner/CELPP/2016_10_17_rdock_implementation/normal_run/tutorialVideo/tutorial_rdock_implementation/full_week_run/4-docking/1fcz/hiTanimoto_1fcz_tech_prep/rDockGridGenInput.prm

>  <SCORE>
-51.9969

>  <SCORE.INTER>
-31.6653

>  <SCORE.INTER.CONST>
1

>  <SCORE.INTER.POLAR>
-2.01806

>  <SCORE.INTER.REPUL>
0

>  <SCORE.INTER.ROT>
4

>  <SCORE.INTER.VDW>
-34.2039

>  <SCORE.INTER.norm>
-1.17279

>  <SCORE.INTRA>
-2.1774

>  <SCORE.INTRA.DIHEDRAL>
-6.12821

>  <SCORE.INTRA.DIHEDRAL.0>
10.7811

>  <SCORE.INTRA.POLAR>
0

>  <SCORE.INTRA.POLAR.0>
0

>  <SCORE.INTRA.REPUL>
0

>  <SCORE.INTRA.REPUL.0>
0

>  <SCORE.INTRA.VDW>
0.886703

>  <SCORE.INTRA.VDW.0>
-0.812999

>  <SCORE.INTRA.norm>
-0.0806445

>  <SCORE.RESTR>
0

>  <SCORE.RESTR.CAVITY>
0

>  <SCORE.RESTR.norm>
0

>  <SCORE.SYSTEM>
-18.1542

>  <SCORE.SYSTEM.CONST>
0

>  <SCORE.SYSTEM.DIHEDRAL>
1.84451

>  <SCORE.SYSTEM.POLAR>
-4.74944

>  <SCORE.SYSTEM.VDW>
-2.92833

>  <SCORE.SYSTEM.norm>
-0.672376

>  <SCORE.heavy>
27

>  <SCORE.norm>
-1.92581

$$$$

  rDOCK(R)          3D
libRbt.so/2013.1/901 2013/11/27
 28 30  0  0  0  0  0  0  0  0999 V2000
   38.6322   13.9090   85.2613 C   0  0  0  0  0  0
   39.6785   13.1624   84.5312 C   0  0  0  0  0  0
   39.5656   11.9096   84.4511 O   0  0  0  0  0  0
   40.8554   13.8168   83.9095 C   0  0  0  0  0  0
   41.3907   13.3106   82.7191 C   0  0  0  0  0  0
   42.5318   13.8868   82.1145 C   0  0  0  0  0  0
   43.0932   15.0633   82.6967 C   0  0  0  0  0  0
   42.5770   15.5169   83.9302 C   0  0  0  0  0  0
   41.4800   14.9028   84.5264 C   0  0  0  0  0  0
   44.2888   15.8013   82.0753 C   0  0  0  0  0  0
   44.0326   17.3289   82.0412 C   0  0  0  0  0  0
   45.5478   15.5296   82.9301 C   0  0  0  0  0  0
   44.5340   15.3555   80.6124 C   0  0  0  0  0  0
   44.4676   13.8417   80.4520 C   0  0  0  0  0  0
   43.0722   13.2737   80.8130 C   0  0  0  0  0  0
   43.2368   11.7397   80.9554 C   0  0  0  0  0  0
   42.0725   13.5603   79.6690 C   0  0  0  0  0  0
   38.6120   15.2485   85.3308 C   0  0  0  0  0  0
   37.5726   16.0240   86.0515 C   0  0  0  0  0  0
   36.5404   15.4116   86.7880 C   0  0  0  0  0  0
   35.5788   16.1872   87.4431 C   0  0  0  0  0  0
   35.6238   17.5903   87.3754 C   0  0  0  0  0  0
   34.6084   18.4257   88.0621 C   0  0  0  0  0  0
   33.6856   17.8739   88.7189 O   0  0  0  0  0  0
   34.6326   19.8182   87.9914 O   0  0  0  0  0  0
   36.6380   18.1989   86.6170 C   0  0  0  0  0  0
   37.5991   17.4241   85.9624 C   0  0  0  0  0  0
   35.3335   20.3257   87.4673 H   0  0  0  0  0  0
  1  2  1  0  0  0
  2  3  2  0  0  0
  2  4  1  0  0  0
  4  5  2  0  0  0
  5  6  1  0  0  0
  6  7  2  0  0  0
  7  8  1  0  0  0
  8  9  2  0  0  0
  7 10  1  0  0  0
 10 11  1  0  0  0
 10 12  1  0  0  0
 10 13  1  0  0  0
 13 14  1  0  0  0
 14 15  1  0  0  0
 15 16  1  0  0  0
 15 17  1  0  0  0
  1 18  2  0  0  0
 18 19  1  0  0  0
 19 20  2  0  0  0
 20 21  1  0  0  0
 21 22  2  0  0  0
 22 23  1  0  0  0
 23 24  2  0  0  0
 23 25  1  0  0  0
 22 26  1  0  0  0
 26 27  2  0  0  0
  9  4  1  0  0  0
 27 19  1  0  0  0
 15  6  1  0  0  0
 25 28  1  0  0  0
M  END
>  <CHROM.0>
-157.83981521,58.58306495,-65.20804919,174.97731416,61.03603190,-56.57839611
178.17871541,68.51568395

>  <CHROM.1>
-175.58470169,-145.81834118,3.17703641,-0.05545935,0.45843396,40.06868654
15.36175745,84.21984319,2.67864242,0.54547020,0.25059432

>  <RI>
3.35367e+07

>  <Rbt.Current_Directory>
/extra/banzai2/j5wagner/CELPP/2016_10_17_rdock_implementation/normal_run/tutorialVideo/tutorial_rdock_implementation/full_week_run/4-docking/1fcz/hiTanimoto_1fcz_docking

>  <Rbt.Executable>
rbdock ($Id: //depot/dev/client3/rdock/2013.1/src/exe/rbdock.cxx#4 $)

>  <Rbt.Library>
libRbt.so (2013.1, Build901 2013/11/27)

>  <Rbt.Parameter_File>
/home/j5wagner/env_00/source/rDock/rDock_2013.1_src//data/scripts/dock.prm

>  <Rbt.Receptor>
/extra/banzai2/j5wagner/CELPP/2016_10_17_rdock_implementation/normal_run/tutorialVideo/tutorial_rdock_implementation/full_week_run/4-docking/1fcz/hiTanimoto_1fcz_tech_prep/rDockGridGenInput.prm

>  <SCORE>
-51.8129

>  <SCORE.INTER>
-31.1963

>  <SCORE.INTER.CONST>
1

>  <SCORE.INTER.POLAR>
-1.89192

>  <SCORE.INTER.REPUL>
0

>  <SCORE.INTER.ROT>
4

>  <SCORE.INTER.VDW>
-34.1637

>  <SCORE.INTER.norm>
-1.15542

>  <SCORE.INTRA>
-2.4893

>  <SCORE.INTRA.DIHEDRAL>
-6.19088

>  <SCORE.INTRA.DIHEDRAL.0>
10.7811

>  <SCORE.INTRA.POLAR>
0

>  <SCORE.INTRA.POLAR.0>
0

>  <SCORE.INTRA.REPUL>
0

>  <SCORE.INTRA.REPUL.0>
0

>  <SCORE.INTRA.VDW>
0.606143

>  <SCORE.INTRA.VDW.0>
-0.812999

>  <SCORE.INTRA.norm>
-0.0921961

>  <SCORE.RESTR>
0

>  <SCORE.RESTR.CAVITY>
0

>  <SCORE.RESTR.norm>
0

>  <SCORE.SYSTEM>
-18.1273

>  <SCORE.SYSTEM.CONST>
0

>  <SCORE.SYSTEM.DIHEDRAL>
1.33573

>  <SCORE.SYSTEM.POLAR>
-4.75094

>  <SCORE.SYSTEM.VDW>
-2.64201

>  <SCORE.SYSTEM.norm>
-0.671383

>  <SCORE.heavy>
27

>  <SCORE.norm>
-1.919

$$$$

  rDOCK(R)          3D
libRbt.so/2013.1/901 2013/11/27
 28 30  0  0  0  0  0  0  0  0999 V2000
   39.3393   14.6880   85.1002 C   0  0  0  0  0  0
   40.3392   13.7542   84.5404 C   0  0  0  0  0  0
   40.1515   12.5184   84.7020 O   0  0  0  0  0  0
   41.5535   14.2059   83.8184 C   0  0  0  0  0  0
   41.9888   13.5166   82.6804 C   0  0  0  0  0  0
   43.1600   13.8967   81.9852 C   0  0  0  0  0  0
   43.8615   15.0636   82.4148 C   0  0  0  0  0  0
   43.4415   15.7036   83.6012 C   0  0  0  0  0  0
   42.3099   15.2805   84.2913 C   0  0  0  0  0  0
   45.1031   15.5959   81.6831 C   0  0  0  0  0  0
   45.0054   17.1289   81.4815 C   0  0  0  0  0  0
   46.3582   15.2873   82.5311 C   0  0  0  0  0  0
   45.2460   14.9671   80.2749 C   0  0  0  0  0  0
   45.0174   13.4608   80.2900 C   0  0  0  0  0  0
   43.5851   13.0890   80.7488 C   0  0  0  0  0  0
   43.5952   11.5714   81.0611 C   0  0  0  0  0  0
   42.5785   13.3524   79.6053 C   0  0  0  0  0  0
   38.4637   14.3286   86.0507 C   0  0  0  0  0  0
   37.4532   15.2451   86.6342 C   0  0  0  0  0  0
   36.5415   14.8391   87.6274 C   0  0  0  0  0  0
   35.6017   15.7391   88.1395 C   0  0  0  0  0  0
   35.5488   17.0627   87.6700 C   0  0  0  0  0  0
   34.5550   18.0274   88.2013 C   0  0  0  0  0  0
   33.6167   17.6175   88.9354 O   0  0  0  0  0  0
   34.6165   19.3873   87.8990 O   0  0  0  0  0  0
   36.4409   17.4582   86.6590 C   0  0  0  0  0  0
   37.3801   16.5590   86.1472 C   0  0  0  0  0  0
   35.3214   19.7791   87.2881 H   0  0  0  0  0  0
  1  2  1  0  0  0
  2  3  2  0  0  0
  2  4  1  0  0  0
  4  5  2  0  0  0
  5  6  1  0  0  0
  6  7  2  0  0  0
  7  8  1  0  0  0
  8  9  2  0  0  0
  7 10  1  0  0  0
 10 11  1  0  0  0
 10 12  1  0  0  0
 10 13  1  0  0  0
 13 14  1  0  0  0
 14 15  1  0  0  0
 15 16  1  0  0  0
 15 17  1  0  0  0
  1 18  2  0  0  0
 18 19  1  0  0  0
 19 20  2  0  0  0
 20 21  1  0  0  0
 21 22  2  0  0  0
 22 23  1  0  0  0
 23 24  2  0  0  0
 23 25  1  0  0  0
 22 26  1  0  0  0
 26 27  2  0  0  0
  9  4  1  0  0  0
 27 19  1  0  0  0
 15  6  1  0  0  0
 25 28  1  0  0  0
M  END
>  <CHROM.0>
-159.29946894,-60.91306495,-63.35672940,-55.59687987,59.13455328,-59.16875689
61.24516582,68.12858008

>  <CHROM.1>
18.31366074,-140.04501870,179.69812178,-10.61561756,1.61377949,40.46481580
15.18475080,84.24249510,2.76308665,0.56187501,0.22843971

>  <RI>
3.35367e+07

>  <Rbt.Current_Directory>
/extra/banzai2/j5wagner/CELPP/2016_10_17_rdock_implementation/normal_run/tutorialVideo/tutorial_rdock_implementation/full_week_run/4-docking/1fcz/hiTanimoto_1fcz_docking

>  <Rbt.Executable>
rbdock ($Id: //depot/dev/client3/rdock/2013.1/src/exe/rbdock.cxx#4 $)

>  <Rbt.Library>
libRbt.so (2013.1, Build901 2013/11/27)

>  <Rbt.Parameter_File>
/home/j5wagner/env_00/source/rDock/rDock_2013.1_src//data/scripts/dock.prm

>  <Rbt.Receptor>
/extra/banzai2/j5wagner/CELPP/2016_10_17_rdock_implementation/normal_run/tutorialVideo/tutorial_rdock_implementation/full_week_run/4-docking/1fcz/hiTanimoto_1fcz_tech_prep/rDockGridGenInput.prm

>  <SCORE>
-51.6135

>  <SCORE.INTER>
-32.3474

>  <SCORE.INTER.CONST>
1

>  <SCORE.INTER.POLAR>
-2.40993

>  <SCORE.INTER.REPUL>
0

>  <SCORE.INTER.ROT>
4

>  <SCORE.INTER.VDW>
-33.5536

>  <SCORE.INTER.norm>
-1.19805

>  <SCORE.INTRA>
-1.03065

>  <SCORE.INTRA.DIHEDRAL>
-3.42287

>  <SCORE.INTRA.DIHEDRAL.0>
10.7811

>  <SCORE.INTRA.POLAR>
0

>  <SCORE.INTRA.POLAR.0>
0

>  <SCORE.INTRA.REPUL>
0

>  <SCORE.INTRA.REPUL.0>
0

>  <SCORE.INTRA.VDW>
0.680788

>  <SCORE.INTRA.VDW.0>
-0.812999

>  <SCORE.INTRA.norm>
-0.0381721

>  <SCORE.RESTR>
0

>  <SCORE.RESTR.CAVITY>
0

>  <SCORE.RESTR.norm>
0

>  <SCORE.SYSTEM>
-18.2355

>  <SCORE.SYSTEM.CONST>
0

>  <SCORE.SYSTEM.DIHEDRAL>
1.07731

>  <SCORE.SYSTEM.POLAR>
-4.78518

>  <SCORE.SYSTEM.VDW>
-2.50457

>  <SCORE.SYSTEM.norm>
-0.67539

>  <SCORE.heavy>
27

>  <SCORE.norm>
-1.91161

$$$$

  rDOCK(R)          3D
libRbt.so/2013.1/901 2013/11/27
 28 30  0  0  0  0  0  0  0  0999 V2000
   39.2909   14.8666   85.2362 C   0  0  0  0  0  0
   40.2670   13.8862   84.7152 C   0  0  0  0  0  0
   40.0504   12.6632   84.9299 O   0  0  0  0  0  0
   41.4896   14.2776   83.9724 C   0  0  0  0  0  0
   41.8979   13.5379   82.8563 C   0  0  0  0  0  0
   43.0757   13.8599   82.1429 C   0  0  0  0  0  0
   43.8133   15.0196   82.5293 C   0  0  0  0  0  0
   43.4190   15.7113   83.6954 C   0  0  0  0  0  0
   42.2796   15.3449   84.4050 C   0  0  0  0  0  0
   45.0655   15.4905   81.7740 C   0  0  0  0  0  0
   45.0112   17.0180   81.5210 C   0  0  0  0  0  0
   46.3161   15.1741   82.6258 C   0  0  0  0  0  0
   45.1818   14.8106   80.3872 C   0  0  0  0  0  0
   44.9096   13.3130   80.4544 C   0  0  0  0  0  0
   43.4699   12.9989   80.9325 C   0  0  0  0  0  0
   43.4376   11.4931   81.2959 C   0  0  0  0  0  0
   42.4646   13.2529   79.7857 C   0  0  0  0  0  0
   38.3226   14.5352   86.1033 C   0  0  0  0  0  0
   37.3331   15.4982   86.6464 C   0  0  0  0  0  0
   37.3735   16.8754   86.3560 C   0  0  0  0  0  0
   36.4222   17.7441   86.9000 C   0  0  0  0  0  0
   35.4119   17.2587   87.7479 C   0  0  0  0  0  0
   34.3984   18.1689   88.3351 C   0  0  0  0  0  0
   33.4016   17.6888   88.9378 O   0  0  0  0  0  0
   34.5055   19.5551   88.2277 O   0  0  0  0  0  0
   35.3900   15.8886   88.0589 C   0  0  0  0  0  0
   36.3404   15.0204   87.5153 C   0  0  0  0  0  0
   35.2705   20.0074   87.7443 H   0  0  0  0  0  0
  1  2  1  0  0  0
  2  3  2  0  0  0
  2  4  1  0  0  0
  4  5  2  0  0  0
  5  6  1  0  0  0
  6  7  2  0  0  0
  7  8  1  0  0  0
  8  9  2  0  0  0
  7 10  1  0  0  0
 10 11  1  0  0  0
 10 12  1  0  0  0
 10 13  1  0  0  0
 13 14  1  0  0  0
 14 15  1  0  0  0
 15 16  1  0  0  0
 15 17  1  0  0  0
  1 18  2  0  0  0
 18 19  1  0  0  0
 19 20  2  0  0  0
 20 21  1  0  0  0
 21 22  2  0  0  0
 22 23  1  0  0  0
 23 24  2  0  0  0
 23 25  1  0  0  0
 22 26  1  0  0  0
 26 27  2  0  0  0
  9  4  1  0  0  0
 27 19  1  0  0  0
 15  6  1  0  0  0
 25 28  1  0  0  0
M  END
>  <CHROM.0>
-158.74293846,59.12049159,-64.14961757,68.11554257,-177.19642441,63.63820015
-178.12353253,71.60294021

>  <CHROM.1>
11.37406846,-139.41701512,-3.87021508,170.24634211,0.30432432,40.37102388
15.24174856,84.36816923,2.72683120,0.53836765,0.25911710

>  <RI>
3.35367e+07

>  <Rbt.Current_Directory>
/extra/banzai2/j5wagner/CELPP/2016_10_17_rdock_implementation/normal_run/tutorialVideo/tutorial_rdock_implementation/full_week_run/4-docking/1fcz/hiTanimoto_1fcz_docking

>  <Rbt.Executable>
rbdock ($Id: //depot/dev/client3/rdock/2013.1/src/exe/rbdock.cxx#4 $)

>  <Rbt.Library>
libRbt.so (2013.1, Build901 2013/11/27)

>  <Rbt.Parameter_File>
/home/j5wagner/env_00/source/rDock/rDock_2013.1_src//data/scripts/dock.prm

>  <Rbt.Receptor>
/extra/banzai2/j5wagner/CELPP/2016_10_17_rdock_implementation/normal_run/tutorialVideo/tutorial_rdock_implementation/full_week_run/4-docking/1fcz/hiTanimoto_1fcz_tech_prep/rDockGridGenInput.prm

>  <SCORE>
-51.0965

>  <SCORE.INTER>
-30.0504

>  <SCORE.INTER.CONST>
1

>  <SCORE.INTER.POLAR>
-1.84182

>  <SCORE.INTER.REPUL>
0

>  <SCORE.INTER.ROT>
4

>  <SCORE.INTER.VDW>
-33.1882

>  <SCORE.INTER.norm>
-1.11298

>  <SCORE.INTRA>
-1.60063

>  <SCORE.INTRA.DIHEDRAL>
-4.04421

>  <SCORE.INTRA.DIHEDRAL.0>
10.7811

>  <SCORE.INTRA.POLAR>
0

>  <SCORE.INTRA.POLAR.0>
0

>  <SCORE.INTRA.REPUL>
0

>  <SCORE.INTRA.REPUL.0>
0

>  <SCORE.INTRA.VDW>
0.421477

>  <SCORE.INTRA.VDW.0>
-0.812999

>  <SCORE.INTRA.norm>
-0.0592825

>  <SCORE.RESTR>
0

>  <SCORE.RESTR.CAVITY>
0

>  <SCORE.RESTR.norm>
0

>  <SCORE.SYSTEM>
-19.4455

>  <SCORE.SYSTEM.CONST>
0

>  <SCORE.SYSTEM.DIHEDRAL>
1.74235

>  <SCORE.SYSTEM.POLAR>
-4.93826

>  <SCORE.SYSTEM.VDW>
-3.52656

>  <SCORE.SYSTEM.norm>
-0.720202

>  <SCORE.heavy>
27

>  <SCORE.norm>
-1.89246

$$$$

  rDOCK(R)          3D
libRbt.so/2013.1/901 2013/11/27
 28 30  0  0  0  0  0  0  0  0999 V2000
   39.4014   14.8603   85.0502 C   0  0  0  0  0  0
   40.3417   13.8609   84.5005 C   0  0  0  0  0  0
   40.0630   12.6407   84.6490 O   0  0  0  0  0  0
   41.5980   14.2291   83.8034 C   0  0  0  0  0  0
   42.0298   13.4855   82.6987 C   0  0  0  0  0  0
   43.2387   13.7851   82.0290 C   0  0  0  0  0  0
   43.9867   14.9270   82.4471 C   0  0  0  0  0  0
   43.5663   15.6220   83.6020 C   0  0  0  0  0  0
   42.3949   15.2772   84.2690 C   0  0  0  0  0  0
   45.2748   15.3739   81.7389 C   0  0  0  0  0  0
   45.2621   16.9033   81.4919 C   0  0  0  0  0  0
   46.4873   15.0270   82.6328 C   0  0  0  0  0  0
   45.4256   14.6977   80.3537 C   0  0  0  0  0  0
   45.1192   13.2059   80.4038 C   0  0  0  0  0  0
   43.6570   12.9209   80.8290 C   0  0  0  0  0  0
   43.5798   11.4146   81.1835 C   0  0  0  0  0  0
   42.6988   13.2015   79.6487 C   0  0  0  0  0  0
   38.3622   14.5264   85.8299 C   0  0  0  0  0  0
   37.4060   15.5077   86.3993 C   0  0  0  0  0  0
   37.4736   16.8860   86.1195 C   0  0  0  0  0  0
   36.5533   17.7721   86.6883 C   0  0  0  0  0  0
   35.5477   17.3032   87.5509 C   0  0  0  0  0  0
   34.5670   18.2319   88.1644 C   0  0  0  0  0  0
   33.5934   17.7706   88.8176 O   0  0  0  0  0  0
   34.6796   19.6151   88.0276 O   0  0  0  0  0  0
   35.4992   15.9314   87.8510 C   0  0  0  0  0  0
   36.4185   15.0458   87.2826 C   0  0  0  0  0  0
   35.4041   20.0512   87.4722 H   0  0  0  0  0  0
  1  2  1  0  0  0
  2  3  2  0  0  0
  2  4  1  0  0  0
  4  5  2  0  0  0
  5  6  1  0  0  0
  6  7  2  0  0  0
  7  8  1  0  0  0
  8  9  2  0  0  0
  7 10  1  0  0  0
 10 11  1  0  0  0
 10 12  1  0  0  0
 10 13  1  0  0  0
 13 14  1  0  0  0
 14 15  1  0  0  0
 15 16  1  0  0  0
 15 17  1  0  0  0
  1 18  2  0  0  0
 18 19  1  0  0  0
 19 20  2  0  0  0
 20 21  1  0  0  0
 21 22  2  0  0  0
 22 23  1  0  0  0
 23 24  2  0  0  0
 23 25  1  0  0  0
 22 26  1  0  0  0
 26 27  2  0  0  0
  9  4  1  0  0  0
 27 19  1  0  0  0
 15  6  1  0  0  0
 25 28  1  0  0  0
M  END
>  <CHROM.0>
-158.89024500,59.89880645,-64.18928556,175.90112226,-177.57457284,-57.64402299
62.09553549,70.87265268

>  <CHROM.1>
8.21235381,-142.51195132,2.87157060,172.48165750,2.92251981,40.51620975,15.20758041
84.21985314,2.69948888,0.50911001,0.29396245

>  <RI>
3.35367e+07

>  <Rbt.Current_Directory>
/extra/banzai2/j5wagner/CELPP/2016_10_17_rdock_implementation/normal_run/tutorialVideo/tutorial_rdock_implementation/full_week_run/4-docking/1fcz/hiTanimoto_1fcz_docking

>  <Rbt.Executable>
rbdock ($Id: //depot/dev/client3/rdock/2013.1/src/exe/rbdock.cxx#4 $)

>  <Rbt.Library>
libRbt.so (2013.1, Build901 2013/11/27)

>  <Rbt.Parameter_File>
/home/j5wagner/env_00/source/rDock/rDock_2013.1_src//data/scripts/dock.prm

>  <Rbt.Receptor>
/extra/banzai2/j5wagner/CELPP/2016_10_17_rdock_implementation/normal_run/tutorialVideo/tutorial_rdock_implementation/full_week_run/4-docking/1fcz/hiTanimoto_1fcz_tech_prep/rDockGridGenInput.prm

>  <SCORE>
-50.8835

>  <SCORE.INTER>
-30.8252

>  <SCORE.INTER.CONST>
1

>  <SCORE.INTER.POLAR>
-2.53087

>  <SCORE.INTER.REPUL>
0

>  <SCORE.INTER.ROT>
4

>  <SCORE.INTER.VDW>
-31.6203

>  <SCORE.INTER.norm>
-1.14168

>  <SCORE.INTRA>
-2.01308

>  <SCORE.INTRA.DIHEDRAL>
-5.0032

>  <SCORE.INTRA.DIHEDRAL.0>
10.7811

>  <SCORE.INTRA.POLAR>
0

>  <SCORE.INTRA.POLAR.0>
0

>  <SCORE.INTRA.REPUL>
0

>  <SCORE.INTRA.REPUL.0>
0

>  <SCORE.INTRA.VDW>
0.488524

>  <SCORE.INTRA.VDW.0>
-0.812999

>  <SCORE.INTRA.norm>
-0.0745585

>  <SCORE.RESTR>
0

>  <SCORE.RESTR.CAVITY>
0

>  <SCORE.RESTR.norm>
0

>  <SCORE.SYSTEM>
-18.0452

>  <SCORE.SYSTEM.CONST>
0

>  <SCORE.SYSTEM.DIHEDRAL>
1.40099

>  <SCORE.SYSTEM.POLAR>
-4.74255

>  <SCORE.SYSTEM.VDW>
-2.62099

>  <SCORE.SYSTEM.norm>
-0.668339

>  <SCORE.heavy>
27

>  <SCORE.norm>
-1.88457

$$$$

  rDOCK(R)          3D
libRbt.so/2013.1/901 2013/11/27
 28 30  0  0  0  0  0  0  0  0999 V2000
   38.5590   14.0405   85.2110 C   0  0  0  0  0  0
   39.5755   13.2416   84.4942 C   0  0  0  0  0  0
   39.4185   11.9921   84.4426 O   0  0  0  0  0  0
   40.7718   13.8404   83.8540 C   0  0  0  0  0  0
   41.2638   13.3105   82.6553 C   0  0  0  0  0  0
   42.4211   13.8327   82.0327 C   0  0  0  0  0  0
   43.0464   14.9811   82.6059 C   0  0  0  0  0  0
   42.5717   15.4575   83.8474 C   0  0  0  0  0  0
   41.4566   14.8953   84.4610 C   0  0  0  0  0  0
   44.2654   15.6625   81.9656 C   0  0  0  0  0  0
   44.0809   17.2005   81.9357 C   0  0  0  0  0  0
   45.5236   15.3312   82.8004 C   0  0  0  0  0  0
   44.4661   15.2068   80.4991 C   0  0  0  0  0  0
   44.3261   13.6979   80.3397 C   0  0  0  0  0  0
   42.9114   13.1959   80.7227 C   0  0  0  0  0  0
   43.0058   11.6558   80.8625 C   0  0  0  0  0  0
   41.9083   13.5301   79.5947 C   0  0  0  0  0  0
   38.6098   15.3788   85.2869 C   0  0  0  0  0  0
   37.6018   16.2062   85.9945 C   0  0  0  0  0  0
   37.6151   17.6139   85.9625 C   0  0  0  0  0  0
   36.6472   18.3492   86.6538 C   0  0  0  0  0  0
   35.6469   17.6967   87.3946 C   0  0  0  0  0  0
   34.6159   18.4637   88.1359 C   0  0  0  0  0  0
   33.7194   17.8504   88.7743 O   0  0  0  0  0  0
   34.5967   19.8580   88.1371 O   0  0  0  0  0  0
   35.6519   16.2927   87.4484 C   0  0  0  0  0  0
   36.6189   15.5577   86.7575 C   0  0  0  0  0  0
   35.2944   20.4137   87.6597 H   0  0  0  0  0  0
  1  2  1  0  0  0
  2  3  2  0  0  0
  2  4  1  0  0  0
  4  5  2  0  0  0
  5  6  1  0  0  0
  6  7  2  0  0  0
  7  8  1  0  0  0
  8  9  2  0  0  0
  7 10  1  0  0  0
 10 11  1  0  0  0
 10 12  1  0  0  0
 10 13  1  0  0  0
 13 14  1  0  0  0
 14 15  1  0  0  0
 15 16  1  0  0  0
 15 17  1  0  0  0
  1 18  2  0  0  0
 18 19  1  0  0  0
 19 20  2  0  0  0
 20 21  1  0  0  0
 21 22  2  0  0  0
 22 23  1  0  0  0
 23 24  2  0  0  0
 23 25  1  0  0  0
 22 26  1  0  0  0
 26 27  2  0  0  0
  9  4  1  0  0  0
 27 19  1  0  0  0
 15  6  1  0  0  0
 25 28  1  0  0  0
M  END
>  <CHROM.0>
-157.99350567,59.66087427,-177.43376753,66.23183078,-55.29915911,64.61110949
61.04944696,70.96463880

>  <CHROM.1>
-177.78883585,-144.19154056,-174.40156479,178.89986192,-1.85962726,40.02103960
15.36753433,84.17865632,2.64165135,0.54382272,0.28527181

>  <RI>
3.35367e+07

>  <Rbt.Current_Directory>
/extra/banzai2/j5wagner/CELPP/2016_10_17_rdock_implementation/normal_run/tutorialVideo/tutorial_rdock_implementation/full_week_run/4-docking/1fcz/hiTanimoto_1fcz_docking

>  <Rbt.Executable>
rbdock ($Id: //depot/dev/client3/rdock/2013.1/src/exe/rbdock.cxx#4 $)

>  <Rbt.Library>
libRbt.so (2013.1, Build901 2013/11/27)

>  <Rbt.Parameter_File>
/home/j5wagner/env_00/source/rDock/rDock_2013.1_src//data/scripts/dock.prm

>  <Rbt.Receptor>
/extra/banzai2/j5wagner/CELPP/2016_10_17_rdock_implementation/normal_run/tutorialVideo/tutorial_rdock_implementation/full_week_run/4-docking/1fcz/hiTanimoto_1fcz_tech_prep/rDockGridGenInput.prm

>  <SCORE>
-50.5947

>  <SCORE.INTER>
-34.0049

>  <SCORE.INTER.CONST>
1

>  <SCORE.INTER.POLAR>
-2.64851

>  <SCORE.INTER.REPUL>
0

>  <SCORE.INTER.ROT>
4

>  <SCORE.INTER.VDW>
-34.3999

>  <SCORE.INTER.norm>
-1.25944

>  <SCORE.INTRA>
-2.06974

>  <SCORE.INTRA.DIHEDRAL>
-5.78192

>  <SCORE.INTRA.DIHEDRAL.0>
10.7811

>  <SCORE.INTRA.POLAR>
0

>  <SCORE.INTRA.POLAR.0>
0

>  <SCORE.INTRA.REPUL>
0

>  <SCORE.INTRA.REPUL.0>
0

>  <SCORE.INTRA.VDW>
0.821219

>  <SCORE.INTRA.VDW.0>
-0.812999

>  <SCORE.INTRA.norm>
-0.076657

>  <SCORE.RESTR>
0

>  <SCORE.RESTR.CAVITY>
0

>  <SCORE.RESTR.norm>
0

>  <SCORE.SYSTEM>
-14.5201

>  <SCORE.SYSTEM.CONST>
0

>  <SCORE.SYSTEM.DIHEDRAL>
1.57669

>  <SCORE.SYSTEM.POLAR>
-3.57118

>  <SCORE.SYSTEM.VDW>
-3.16644

>  <SCORE.SYSTEM.norm>
-0.537781

>  <SCORE.heavy>
27

>  <SCORE.norm>
-1.87388

$$$$

  rDOCK(R)          3D
libRbt.so/2013.1/901 2013/11/27
 28 30  0  0  0  0  0  0  0  0999 V2000
   38.8046   13.8585   85.0861 C   0  0  0  0  0  0
   39.8774   13.1256   84.3810 C   0  0  0  0  0  0
   39.7847   11.8711   84.3019 O   0  0  0  0  0  0
   41.0579   13.7958   83.7834 C   0  0  0  0  0  0
   41.6203   13.3006   82.6010 C   0  0  0  0  0  0
   42.7656   13.8920   82.0195 C   0  0  0  0  0  0
   43.3030   15.0724   82.6163 C   0  0  0  0  0  0
   42.7595   15.5150   83.8421 C   0  0  0  0  0  0
   41.6589   14.8862   84.4159 C   0  0  0  0  0  0
   44.5013   15.8264   82.0197 C   0  0  0  0  0  0
   44.2285   17.3511   81.9871 C   0  0  0  0  0  0
   45.7476   15.5653   82.8961 C   0  0  0  0  0  0
   44.7779   15.3894   80.5598 C   0  0  0  0  0  0
   44.7316   13.8757   80.3922 C   0  0  0  0  0  0
   43.3364   13.2905   80.7255 C   0  0  0  0  0  0
   43.5157   11.7579   80.8648 C   0  0  0  0  0  0
   42.3544   13.5706   79.5647 C   0  0  0  0  0  0
   38.7507   15.1980   85.1322 C   0  0  0  0  0  0
   37.6841   15.9598   85.8274 C   0  0  0  0  0  0
   37.5751   17.3614   85.7478 C   0  0  0  0  0  0
   36.5561   18.0344   86.4292 C   0  0  0  0  0  0
   35.6256   17.3244   87.2073 C   0  0  0  0  0  0
   34.5418   18.0252   87.9385 C   0  0  0  0  0  0
   34.2990   19.2355   87.6866 O   0  0  0  0  0  0
   33.7835   17.3855   88.9185 O   0  0  0  0  0  0
   35.7529   15.9288   87.3082 C   0  0  0  0  0  0
   36.7709   15.2561   86.6272 C   0  0  0  0  0  0
   33.9028   16.4077   89.1488 H   0  0  0  0  0  0
  1  2  1  0  0  0
  2  3  2  0  0  0
  2  4  1  0  0  0
  4  5  2  0  0  0
  5  6  1  0  0  0
  6  7  2  0  0  0
  7  8  1  0  0  0
  8  9  2  0  0  0
  7 10  1  0  0  0
 10 11  1  0  0  0
 10 12  1  0  0  0
 10 13  1  0  0  0
 13 14  1  0  0  0
 14 15  1  0  0  0
 15 16  1  0  0  0
 15 17  1  0  0  0
  1 18  2  0  0  0
 18 19  1  0  0  0
 19 20  2  0  0  0
 20 21  1  0  0  0
 21 22  2  0  0  0
 22 23  1  0  0  0
 23 24  2  0  0  0
 23 25  1  0  0  0
 22 26  1  0  0  0
 26 27  2  0  0  0
  9  4  1  0  0  0
 27 19  1  0  0  0
 15  6  1  0  0  0
 25 28  1  0  0  0
M  END
>  <CHROM.0>
-8.58915997,177.74816548,-66.19999835,68.17038730,63.29835362,-177.87291857
64.40336890,69.66858972

>  <CHROM.1>
-174.41213081,-145.34193099,-173.41100896,12.41410320,-2.93488258,40.21178661
15.25614129,84.11053208,2.72496147,0.53789289,0.24827591

>  <RI>
3.35367e+07

>  <Rbt.Current_Directory>
/extra/banzai2/j5wagner/CELPP/2016_10_17_rdock_implementation/normal_run/tutorialVideo/tutorial_rdock_implementation/full_week_run/4-docking/1fcz/hiTanimoto_1fcz_docking

>  <Rbt.Executable>
rbdock ($Id: //depot/dev/client3/rdock/2013.1/src/exe/rbdock.cxx#4 $)

>  <Rbt.Library>
libRbt.so (2013.1, Build901 2013/11/27)

>  <Rbt.Parameter_File>
/home/j5wagner/env_00/source/rDock/rDock_2013.1_src//data/scripts/dock.prm

>  <Rbt.Receptor>
/extra/banzai2/j5wagner/CELPP/2016_10_17_rdock_implementation/normal_run/tutorialVideo/tutorial_rdock_implementation/full_week_run/4-docking/1fcz/hiTanimoto_1fcz_tech_prep/rDockGridGenInput.prm

>  <SCORE>
-50.4812

>  <SCORE.INTER>
-32.2919

>  <SCORE.INTER.CONST>
1

>  <SCORE.INTER.POLAR>
-2.31676

>  <SCORE.INTER.REPUL>
0

>  <SCORE.INTER.ROT>
4

>  <SCORE.INTER.VDW>
-33.8149

>  <SCORE.INTER.norm>
-1.196

>  <SCORE.INTRA>
-1.88035

>  <SCORE.INTRA.DIHEDRAL>
-5.28751

>  <SCORE.INTRA.DIHEDRAL.0>
10.7811

>  <SCORE.INTRA.POLAR>
0

>  <SCORE.INTRA.POLAR.0>
0

>  <SCORE.INTRA.REPUL>
0

>  <SCORE.INTRA.REPUL.0>
0

>  <SCORE.INTRA.VDW>
0.763409

>  <SCORE.INTRA.VDW.0>
-0.812999

>  <SCORE.INTRA.norm>
-0.0696424

>  <SCORE.RESTR>
0

>  <SCORE.RESTR.CAVITY>
0

>  <SCORE.RESTR.norm>
0

>  <SCORE.SYSTEM>
-16.309

>  <SCORE.SYSTEM.CONST>
0

>  <SCORE.SYSTEM.DIHEDRAL>
1.23136

>  <SCORE.SYSTEM.POLAR>
-4.39881

>  <SCORE.SYSTEM.REPUL>
0.202354

>  <SCORE.SYSTEM.VDW>
-2.98052

>  <SCORE.SYSTEM.norm>
-0.604038

>  <SCORE.heavy>
27

>  <SCORE.norm>
-1.86968

$$$$

  rDOCK(R)          3D
libRbt.so/2013.1/901 2013/11/27
 28 30  0  0  0  0  0  0  0  0999 V2000
   38.7048   13.9320   85.1639 C   0  0  0  0  0  0
   39.7384   13.1707   84.4308 C   0  0  0  0  0  0
   39.5974   11.9220   84.3341 O   0  0  0  0  0  0
   40.9339   13.8057   83.8247 C   0  0  0  0  0  0
   41.5007   13.2665   82.6638 C   0  0  0  0  0  0
   42.6598   13.8238   82.0759 C   0  0  0  0  0  0
   43.2080   15.0145   82.6415 C   0  0  0  0  0  0
   42.6591   15.5022   83.8476 C   0  0  0  0  0  0
   41.5442   14.9067   84.4293 C   0  0  0  0  0  0
   44.4225   15.7330   82.0340 C   0  0  0  0  0  0
   44.1716   17.2596   81.9518 C   0  0  0  0  0  0
   45.6565   15.4819   82.9306 C   0  0  0  0  0  0
   44.7069   15.2474   80.5911 C   0  0  0  0  0  0
   44.6408   13.7299   80.4698 C   0  0  0  0  0  0
   43.2344   13.1747   80.8069 C   0  0  0  0  0  0
   43.3907   11.6448   80.9951 C   0  0  0  0  0  0
   42.2677   13.4324   79.6282 C   0  0  0  0  0  0
   38.7219   15.2697   85.2611 C   0  0  0  0  0  0
   37.6960   16.0598   85.9855 C   0  0  0  0  0  0
   36.6030   15.4651   86.6444 C   0  0  0  0  0  0
   35.6575   16.2546   87.3064 C   0  0  0  0  0  0
   35.7799   17.6546   87.3229 C   0  0  0  0  0  0
   34.7826   18.5049   88.0178 C   0  0  0  0  0  0
   34.9460   19.7536   88.0586 O   0  0  0  0  0  0
   33.6646   17.9603   88.6487 O   0  0  0  0  0  0
   36.8557   18.2478   86.6411 C   0  0  0  0  0  0
   37.8007   17.4591   85.9797 C   0  0  0  0  0  0
   33.4799   16.9658   88.6687 H   0  0  0  0  0  0
  1  2  1  0  0  0
  2  3  2  0  0  0
  2  4  1  0  0  0
  4  5  2  0  0  0
  5  6  1  0  0  0
  6  7  2  0  0  0
  7  8  1  0  0  0
  8  9  2  0  0  0
  7 10  1  0  0  0
 10 11  1  0  0  0
 10 12  1  0  0  0
 10 13  1  0  0  0
 13 14  1  0  0  0
 14 15  1  0  0  0
 15 16  1  0  0  0
 15 17  1  0  0  0
  1 18  2  0  0  0
 18 19  1  0  0  0
 19 20  2  0  0  0
 20 21  1  0  0  0
 21 22  2  0  0  0
 22 23  1  0  0  0
 23 24  2  0  0  0
 23 25  1  0  0  0
 22 26  1  0  0  0
 26 27  2  0  0  0
  9  4  1  0  0  0
 27 19  1  0  0  0
 15  6  1  0  0  0
 25 28  1  0  0  0
M  END
>  <CHROM.0>
0.37559973,178.81602471,-64.97191625,66.21263670,61.55526249,-59.37309123
67.80762321,69.33767512

>  <CHROM.1>
-176.23772229,-148.65624233,0.13440064,177.32598406,0.30846589,40.18935686
15.33487680,84.17478558,2.65465376,0.52748098,0.28542708

>  <RI>
3.35367e+07

>  <Rbt.Current_Directory>
/extra/banzai2/j5wagner/CELPP/2016_10_17_rdock_implementation/normal_run/tutorialVideo/tutorial_rdock_implementation/full_week_run/4-docking/1fcz/hiTanimoto_1fcz_docking

>  <Rbt.Executable>
rbdock ($Id: //depot/dev/client3/rdock/2013.1/src/exe/rbdock.cxx#4 $)

>  <Rbt.Library>
libRbt.so (2013.1, Build901 2013/11/27)

>  <Rbt.Parameter_File>
/home/j5wagner/env_00/source/rDock/rDock_2013.1_src//data/scripts/dock.prm

>  <Rbt.Receptor>
/extra/banzai2/j5wagner/CELPP/2016_10_17_rdock_implementation/normal_run/tutorialVideo/tutorial_rdock_implementation/full_week_run/4-docking/1fcz/hiTanimoto_1fcz_tech_prep/rDockGridGenInput.prm

>  <SCORE>
-50.4003

>  <SCORE.INTER>
-31.4062

>  <SCORE.INTER.CONST>
1

>  <SCORE.INTER.POLAR>
-1.98824

>  <SCORE.INTER.REPUL>
0

>  <SCORE.INTER.ROT>
4

>  <SCORE.INTER.VDW>
-34.0462

>  <SCORE.INTER.norm>
-1.16319

>  <SCORE.INTRA>
-2.67453

>  <SCORE.INTRA.DIHEDRAL>
-6.83198

>  <SCORE.INTRA.DIHEDRAL.0>
10.7811

>  <SCORE.INTRA.POLAR>
0

>  <SCORE.INTRA.POLAR.0>
0

>  <SCORE.INTRA.REPUL>
0

>  <SCORE.INTRA.REPUL.0>
0

>  <SCORE.INTRA.VDW>
0.741463

>  <SCORE.INTRA.VDW.0>
-0.812999

>  <SCORE.INTRA.norm>
-0.0990566

>  <SCORE.RESTR>
0

>  <SCORE.RESTR.CAVITY>
0

>  <SCORE.RESTR.norm>
0

>  <SCORE.SYSTEM>
-16.3196

>  <SCORE.SYSTEM.CONST>
0

>  <SCORE.SYSTEM.DIHEDRAL>
1.04677

>  <SCORE.SYSTEM.POLAR>
-4.37284

>  <SCORE.SYSTEM.REPUL>
0.202354

>  <SCORE.SYSTEM.VDW>
-2.98711

>  <SCORE.SYSTEM.norm>
-0.60443

>  <SCORE.heavy>
27

>  <SCORE.norm>
-1.86668

$$$$

  rDOCK(R)          3D
libRbt.so/2013.1/901 2013/11/27
 28 30  0  0  0  0  0  0  0  0999 V2000
   38.6718   13.8880   85.1521 C   0  0  0  0  0  0
   39.6966   13.1286   84.4048 C   0  0  0  0  0  0
   39.5468   11.8820   84.2945 O   0  0  0  0  0  0
   40.8931   13.7627   83.7998 C   0  0  0  0  0  0
   41.3902   13.2963   82.5771 C   0  0  0  0  0  0
   42.5477   13.8530   81.9857 C   0  0  0  0  0  0
   43.1679   14.9723   82.6189 C   0  0  0  0  0  0
   42.6882   15.3830   83.8818 C   0  0  0  0  0  0
   41.5730   14.7871   84.4622 C   0  0  0  0  0  0
   44.3869   15.6890   82.0182 C   0  0  0  0  0  0
   44.1980   17.2259   82.0666 C   0  0  0  0  0  0
   45.6436   15.3188   82.8388 C   0  0  0  0  0  0
   44.5933   15.3096   80.5308 C   0  0  0  0  0  0
   44.4581   13.8104   80.2939 C   0  0  0  0  0  0
   43.0438   13.2856   80.6463 C   0  0  0  0  0  0
   43.1423   11.7405   80.7073 C   0  0  0  0  0  0
   42.0431   13.6743   79.5338 C   0  0  0  0  0  0
   38.7120   15.2221   85.2859 C   0  0  0  0  0  0
   37.6956   16.0106   86.0253 C   0  0  0  0  0  0
   36.6217   15.4131   86.7125 C   0  0  0  0  0  0
   35.6843   16.2010   87.3878 C   0  0  0  0  0  0
   35.7959   17.6020   87.3898 C   0  0  0  0  0  0
   34.8070   18.4506   88.0986 C   0  0  0  0  0  0
   34.9674   19.6997   88.1349 O   0  0  0  0  0  0
   33.7002   17.9038   88.7473 O   0  0  0  0  0  0
   36.8522   18.1976   86.6801 C   0  0  0  0  0  0
   37.7891   17.4105   86.0054 C   0  0  0  0  0  0
   33.5243   16.9081   88.7805 H   0  0  0  0  0  0
  1  2  1  0  0  0
  2  3  2  0  0  0
  2  4  1  0  0  0
  4  5  2  0  0  0
  5  6  1  0  0  0
  6  7  2  0  0  0
  7  8  1  0  0  0
  8  9  2  0  0  0
  7 10  1  0  0  0
 10 11  1  0  0  0
 10 12  1  0  0  0
 10 13  1  0  0  0
 13 14  1  0  0  0
 14 15  1  0  0  0
 15 16  1  0  0  0
 15 17  1  0  0  0
  1 18  2  0  0  0
 18 19  1  0  0  0
 19 20  2  0  0  0
 20 21  1  0  0  0
 21 22  2  0  0  0
 22 23  1  0  0  0
 23 24  2  0  0  0
 23 25  1  0  0  0
 22 26  1  0  0  0
 26 27  2  0  0  0
  9  4  1  0  0  0
 27 19  1  0  0  0
 15  6  1  0  0  0
 25 28  1  0  0  0
M  END
>  <CHROM.0>
-158.91172511,54.65487784,-65.49682812,66.92631287,65.84065117,60.41452621
-178.67801521,71.88126400

>  <CHROM.1>
-177.52945106,-143.84385028,3.11940899,176.72098160,1.01600819,40.14294797
15.31509736,84.15943748,2.63989670,0.53388017,0.32011280

>  <RI>
3.35367e+07

>  <Rbt.Current_Directory>
/extra/banzai2/j5wagner/CELPP/2016_10_17_rdock_implementation/normal_run/tutorialVideo/tutorial_rdock_implementation/full_week_run/4-docking/1fcz/hiTanimoto_1fcz_docking

>  <Rbt.Executable>
rbdock ($Id: //depot/dev/client3/rdock/2013.1/src/exe/rbdock.cxx#4 $)

>  <Rbt.Library>
libRbt.so (2013.1, Build901 2013/11/27)

>  <Rbt.Parameter_File>
/home/j5wagner/env_00/source/rDock/rDock_2013.1_src//data/scripts/dock.prm

>  <Rbt.Receptor>
/extra/banzai2/j5wagner/CELPP/2016_10_17_rdock_implementation/normal_run/tutorialVideo/tutorial_rdock_implementation/full_week_run/4-docking/1fcz/hiTanimoto_1fcz_tech_prep/rDockGridGenInput.prm

>  <SCORE>
-50.256

>  <SCORE.INTER>
-28.4726

>  <SCORE.INTER.CONST>
1

>  <SCORE.INTER.POLAR>
-1.06144

>  <SCORE.INTER.REPUL>
0

>  <SCORE.INTER.ROT>
4

>  <SCORE.INTER.VDW>
-34.2637

>  <SCORE.INTER.norm>
-1.05454

>  <SCORE.INTRA>
-2.34427

>  <SCORE.INTRA.DIHEDRAL>
-5.76317

>  <SCORE.INTRA.DIHEDRAL.0>
10.7811

>  <SCORE.INTRA.POLAR>
0

>  <SCORE.INTRA.POLAR.0>
0

>  <SCORE.INTRA.REPUL>
0

>  <SCORE.INTRA.REPUL.0>
0

>  <SCORE.INTRA.VDW>
0.537314

>  <SCORE.INTRA.VDW.0>
-0.812999

>  <SCORE.INTRA.norm>
-0.0868248

>  <SCORE.RESTR>
0

>  <SCORE.RESTR.CAVITY>
0

>  <SCORE.RESTR.norm>
0

>  <SCORE.SYSTEM>
-19.4391

>  <SCORE.SYSTEM.CONST>
0

>  <SCORE.SYSTEM.DIHEDRAL>
1.83201

>  <SCORE.SYSTEM.POLAR>
-4.94758

>  <SCORE.SYSTEM.VDW>
-3.53338

>  <SCORE.SYSTEM.norm>
-0.719968

>  <SCORE.heavy>
27

>  <SCORE.norm>
-1.86133

$$$$

  rDOCK(R)          3D
libRbt.so/2013.1/901 2013/11/27
 28 30  0  0  0  0  0  0  0  0999 V2000
   38.5848   14.0400   85.1742 C   0  0  0  0  0  0
   39.5787   13.2160   84.4542 C   0  0  0  0  0  0
   39.3700   11.9760   84.3688 O   0  0  0  0  0  0
   40.8102   13.7786   83.8485 C   0  0  0  0  0  0
   41.2904   13.2689   82.6363 C   0  0  0  0  0  0
   42.4789   13.7563   82.0451 C   0  0  0  0  0  0
   43.1519   14.8515   82.6662 C   0  0  0  0  0  0
   42.6860   15.3054   83.9195 C   0  0  0  0  0  0
   41.5378   14.7765   84.5006 C   0  0  0  0  0  0
   44.4100   15.4954   82.0639 C   0  0  0  0  0  0
   44.3003   17.0406   82.0882 C   0  0  0  0  0  0
   45.6407   15.0735   82.8988 C   0  0  0  0  0  0
   44.6061   15.0835   80.5837 C   0  0  0  0  0  0
   44.3953   13.5900   80.3680 C   0  0  0  0  0  0
   42.9536   13.1440   80.7179 C   0  0  0  0  0  0
   42.9719   11.5970   80.8022 C   0  0  0  0  0  0
   41.9814   13.5669   79.5926 C   0  0  0  0  0  0
   38.6406   15.3798   85.2068 C   0  0  0  0  0  0
   37.6549   16.2320   85.9166 C   0  0  0  0  0  0
   37.7556   17.6357   85.9612 C   0  0  0  0  0  0
   36.8050   18.3944   86.6514 C   0  0  0  0  0  0
   35.7351   17.7693   87.3145 C   0  0  0  0  0  0
   34.7214   18.5609   88.0536 C   0  0  0  0  0  0
   34.8327   19.8142   88.1184 O   0  0  0  0  0  0
   33.6444   17.9553   88.7002 O   0  0  0  0  0  0
   35.6519   16.3669   87.2924 C   0  0  0  0  0  0
   36.6016   15.6086   86.6027 C   0  0  0  0  0  0
   33.5241   16.9515   88.7362 H   0  0  0  0  0  0
  1  2  1  0  0  0
  2  3  2  0  0  0
  2  4  1  0  0  0
  4  5  2  0  0  0
  5  6  1  0  0  0
  6  7  2  0  0  0
  7  8  1  0  0  0
  8  9  2  0  0  0
  7 10  1  0  0  0
 10 11  1  0  0  0
 10 12  1  0  0  0
 10 13  1  0  0  0
 13 14  1  0  0  0
 14 15  1  0  0  0
 15 16  1  0  0  0
 15 17  1  0  0  0
  1 18  2  0  0  0
 18 19  1  0  0  0
 19 20  2  0  0  0
 20 21  1  0  0  0
 21 22  2  0  0  0
 22 23  1  0  0  0
 23 24  2  0  0  0
 23 25  1  0  0  0
 22 26  1  0  0  0
 26 27  2  0  0  0
  9  4  1  0  0  0
 27 19  1  0  0  0
 15  6  1  0  0  0
 25 28  1  0  0  0
M  END
>  <CHROM.0>
-157.58073372,-59.64951431,-65.73538148,68.96531931,-55.77291975,62.38336692
-179.23751137,71.57355485

>  <CHROM.1>
-173.08384834,-143.37863483,178.43523486,-1.68180326,3.00693223,40.08600714
15.31790797,84.17037069,2.60864795,0.50385998,0.33764313

>  <RI>
3.35367e+07

>  <Rbt.Current_Directory>
/extra/banzai2/j5wagner/CELPP/2016_10_17_rdock_implementation/normal_run/tutorialVideo/tutorial_rdock_implementation/full_week_run/4-docking/1fcz/hiTanimoto_1fcz_docking

>  <Rbt.Executable>
rbdock ($Id: //depot/dev/client3/rdock/2013.1/src/exe/rbdock.cxx#4 $)

>  <Rbt.Library>
libRbt.so (2013.1, Build901 2013/11/27)

>  <Rbt.Parameter_File>
/home/j5wagner/env_00/source/rDock/rDock_2013.1_src//data/scripts/dock.prm

>  <Rbt.Receptor>
/extra/banzai2/j5wagner/CELPP/2016_10_17_rdock_implementation/normal_run/tutorialVideo/tutorial_rdock_implementation/full_week_run/4-docking/1fcz/hiTanimoto_1fcz_tech_prep/rDockGridGenInput.prm

>  <SCORE>
-50.2338

>  <SCORE.INTER>
-28.6035

>  <SCORE.INTER.CONST>
1

>  <SCORE.INTER.POLAR>
-1.12973

>  <SCORE.INTER.REPUL>
0

>  <SCORE.INTER.ROT>
4

>  <SCORE.INTER.VDW>
-34.1624

>  <SCORE.INTER.norm>
-1.05939

>  <SCORE.INTRA>
-2.01805

>  <SCORE.INTRA.DIHEDRAL>
-5.53537

>  <SCORE.INTRA.DIHEDRAL.0>
10.7811

>  <SCORE.INTRA.POLAR>
0

>  <SCORE.INTRA.POLAR.0>
0

>  <SCORE.INTRA.REPUL>
0

>  <SCORE.INTRA.REPUL.0>
0

>  <SCORE.INTRA.VDW>
0.749637

>  <SCORE.INTRA.VDW.0>
-0.812999

>  <SCORE.INTRA.norm>
-0.0747426

>  <SCORE.RESTR>
0

>  <SCORE.RESTR.CAVITY>
0

>  <SCORE.RESTR.norm>
0

>  <SCORE.SYSTEM>
-19.6123

>  <SCORE.SYSTEM.CONST>
0

>  <SCORE.SYSTEM.DIHEDRAL>
1.94126

>  <SCORE.SYSTEM.POLAR>
-4.99962

>  <SCORE.SYSTEM.VDW>
-3.58426

>  <SCORE.SYSTEM.norm>
-0.726382

>  <SCORE.heavy>
27

>  <SCORE.norm>
-1.86051

$$$$

  rDOCK(R)          3D
libRbt.so/2013.1/901 2013/11/27
 28 30  0  0  0  0  0  0  0  0999 V2000
   38.6580   14.0524   85.2100 C   0  0  0  0  0  0
   39.6590   13.2336   84.4937 C   0  0  0  0  0  0
   39.4820   11.9865   84.4494 O   0  0  0  0  0  0
   40.8623   13.8099   83.8459 C   0  0  0  0  0  0
   41.3483   13.2583   82.6545 C   0  0  0  0  0  0
   42.5116   13.7587   82.0254 C   0  0  0  0  0  0
   43.1500   14.9074   82.5833 C   0  0  0  0  0  0
   42.6808   15.4058   83.8182 C   0  0  0  0  0  0
   41.5592   14.8649   84.4389 C   0  0  0  0  0  0
   44.3770   15.5660   81.9344 C   0  0  0  0  0  0
   44.2103   17.1054   81.8838 C   0  0  0  0  0  0
   45.6312   15.2313   82.7739 C   0  0  0  0  0  0
   44.5727   15.0884   80.4741 C   0  0  0  0  0  0
   44.4151   13.5792   80.3349 C   0  0  0  0  0  0
   42.9947   13.0988   80.7242 C   0  0  0  0  0  0
   43.0712   11.5597   80.8846 C   0  0  0  0  0  0
   41.9957   13.4295   79.5915 C   0  0  0  0  0  0
   38.6994   15.3930   85.2320 C   0  0  0  0  0  0
   37.7065   16.2400   85.9377 C   0  0  0  0  0  0
   37.7792   17.6461   85.9516 C   0  0  0  0  0  0
   36.8228   18.3999   86.6391 C   0  0  0  0  0  0
   35.7751   17.7677   87.3303 C   0  0  0  0  0  0
   34.7557   18.5542   88.0669 C   0  0  0  0  0  0
   34.8733   19.8057   88.1521 O   0  0  0  0  0  0
   33.6662   17.9455   88.6892 O   0  0  0  0  0  0
   35.7202   16.3637   87.3386 C   0  0  0  0  0  0
   36.6756   15.6102   86.6515 C   0  0  0  0  0  0
   33.5332   16.9426   88.6979 H   0  0  0  0  0  0
  1  2  1  0  0  0
  2  3  2  0  0  0
  2  4  1  0  0  0
  4  5  2  0  0  0
  5  6  1  0  0  0
  6  7  2  0  0  0
  7  8  1  0  0  0
  8  9  2  0  0  0
  7 10  1  0  0  0
 10 11  1  0  0  0
 10 12  1  0  0  0
 10 13  1  0  0  0
 13 14  1  0  0  0
 14 15  1  0  0  0
 15 16  1  0  0  0
 15 17  1  0  0  0
  1 18  2  0  0  0
 18 19  1  0  0  0
 19 20  2  0  0  0
 20 21  1  0  0  0
 21 22  2  0  0  0
 22 23  1  0  0  0
 23 24  2  0  0  0
 23 25  1  0  0  0
 22 26  1  0  0  0
 26 27  2  0  0  0
  9  4  1  0  0  0
 27 19  1  0  0  0
 15  6  1  0  0  0
 25 28  1  0  0  0
M  END
>  <CHROM.0>
-157.82975618,-61.37637616,-64.55125753,67.25675079,-55.58541688,-176.12354248
-179.16563286,70.51742185

>  <CHROM.1>
-174.95329353,-144.76074755,179.57178293,-4.69013027,2.17279536,40.11764593
15.33151186,84.15403143,2.62687894,0.53166871,0.29965988

>  <RI>
3.35367e+07

>  <Rbt.Current_Directory>
/extra/banzai2/j5wagner/CELPP/2016_10_17_rdock_implementation/normal_run/tutorialVideo/tutorial_rdock_implementation/full_week_run/4-docking/1fcz/hiTanimoto_1fcz_docking

>  <Rbt.Executable>
rbdock ($Id: //depot/dev/client3/rdock/2013.1/src/exe/rbdock.cxx#4 $)

>  <Rbt.Library>
libRbt.so (2013.1, Build901 2013/11/27)

>  <Rbt.Parameter_File>
/home/j5wagner/env_00/source/rDock/rDock_2013.1_src//data/scripts/dock.prm

>  <Rbt.Receptor>
/extra/banzai2/j5wagner/CELPP/2016_10_17_rdock_implementation/normal_run/tutorialVideo/tutorial_rdock_implementation/full_week_run/4-docking/1fcz/hiTanimoto_1fcz_tech_prep/rDockGridGenInput.prm

>  <SCORE>
-50.2022

>  <SCORE.INTER>
-28.4816

>  <SCORE.INTER.CONST>
1

>  <SCORE.INTER.POLAR>
-1.11988

>  <SCORE.INTER.REPUL>
0

>  <SCORE.INTER.ROT>
4

>  <SCORE.INTER.VDW>
-34.0741

>  <SCORE.INTER.norm>
-1.05488

>  <SCORE.INTRA>
-2.11125

>  <SCORE.INTRA.DIHEDRAL>
-5.87027

>  <SCORE.INTRA.DIHEDRAL.0>
10.7811

>  <SCORE.INTRA.POLAR>
0

>  <SCORE.INTRA.POLAR.0>
0

>  <SCORE.INTRA.REPUL>
0

>  <SCORE.INTRA.REPUL.0>
0

>  <SCORE.INTRA.VDW>
0.823889

>  <SCORE.INTRA.VDW.0>
-0.812999

>  <SCORE.INTRA.norm>
-0.0781943

>  <SCORE.RESTR>
0

>  <SCORE.RESTR.CAVITY>
0

>  <SCORE.RESTR.norm>
0

>  <SCORE.SYSTEM>
-19.6093

>  <SCORE.SYSTEM.CONST>
0

>  <SCORE.SYSTEM.DIHEDRAL>
1.65795

>  <SCORE.SYSTEM.POLAR>
-4.98415

>  <SCORE.SYSTEM.VDW>
-3.49219

>  <SCORE.SYSTEM.norm>
-0.726271

>  <SCORE.heavy>
27

>  <SCORE.norm>
-1.85934

$$$$

  rDOCK(R)          3D
libRbt.so/2013.1/901 2013/11/27
 28 30  0  0  0  0  0  0  0  0999 V2000
   38.8880   13.7043   85.2233 C   0  0  0  0  0  0
   39.9772   13.0248   84.4904 C   0  0  0  0  0  0
   39.9248   11.7703   84.3807 O   0  0  0  0  0  0
   41.1292   13.7481   83.8991 C   0  0  0  0  0  0
   41.7391   13.2624   82.7364 C   0  0  0  0  0  0
   42.8600   13.9054   82.1623 C   0  0  0  0  0  0
   43.3206   15.1251   82.7441 C   0  0  0  0  0  0
   42.7318   15.5602   83.9514 C   0  0  0  0  0  0
   41.6577   14.8822   84.5194 C   0  0  0  0  0  0
   44.4857   15.9331   82.1524 C   0  0  0  0  0  0
   44.1295   17.4393   82.0844 C   0  0  0  0  0  0
   45.7288   15.7587   83.0545 C   0  0  0  0  0  0
   44.8119   15.4843   80.7063 C   0  0  0  0  0  0
   44.8524   13.9673   80.5686 C   0  0  0  0  0  0
   43.4861   13.3119   80.8904 C   0  0  0  0  0  0
   43.7475   11.7946   81.0635 C   0  0  0  0  0  0
   42.5109   13.5145   79.7080 C   0  0  0  0  0  0
   38.7484   15.0383   85.2416 C   0  0  0  0  0  0
   37.6631   15.7468   85.9638 C   0  0  0  0  0  0
   36.7557   15.0846   86.8128 C   0  0  0  0  0  0
   35.7439   15.7965   87.4646 C   0  0  0  0  0  0
   35.6131   17.1838   87.2814 C   0  0  0  0  0  0
   34.5424   17.9513   87.9634 C   0  0  0  0  0  0
   34.3143   19.1429   87.6236 O   0  0  0  0  0  0
   33.7808   17.3961   88.9912 O   0  0  0  0  0  0
   36.5019   17.8382   86.4120 C   0  0  0  0  0  0
   37.5132   17.1271   85.7607 C   0  0  0  0  0  0
   33.8732   16.4304   89.2782 H   0  0  0  0  0  0
  1  2  1  0  0  0
  2  3  2  0  0  0
  2  4  1  0  0  0
  4  5  2  0  0  0
  5  6  1  0  0  0
  6  7  2  0  0  0
  7  8  1  0  0  0
  8  9  2  0  0  0
  7 10  1  0  0  0
 10 11  1  0  0  0
 10 12  1  0  0  0
 10 13  1  0  0  0
 13 14  1  0  0  0
 14 15  1  0  0  0
 15 16  1  0  0  0
 15 17  1  0  0  0
  1 18  2  0  0  0
 18 19  1  0  0  0
 19 20  2  0  0  0
 20 21  1  0  0  0
 21 22  2  0  0  0
 22 23  1  0  0  0
 23 24  2  0  0  0
 23 25  1  0  0  0
 22 26  1  0  0  0
 26 27  2  0  0  0
  9  4  1  0  0  0
 27 19  1  0  0  0
 15  6  1  0  0  0
 25 28  1  0  0  0
M  END
>  <CHROM.0>
2.57064783,-61.31906904,-64.72016685,66.82727802,57.63575505,-178.63575489
68.40460182,71.43211232

>  <CHROM.1>
-170.61046700,-148.58938209,6.73272660,-168.81920064,-4.39759401,40.24949090
15.21603709,84.21966084,2.76535353,0.54649114,0.20179672

>  <RI>
3.35367e+07

>  <Rbt.Current_Directory>
/extra/banzai2/j5wagner/CELPP/2016_10_17_rdock_implementation/normal_run/tutorialVideo/tutorial_rdock_implementation/full_week_run/4-docking/1fcz/hiTanimoto_1fcz_docking

>  <Rbt.Executable>
rbdock ($Id: //depot/dev/client3/rdock/2013.1/src/exe/rbdock.cxx#4 $)

>  <Rbt.Library>
libRbt.so (2013.1, Build901 2013/11/27)

>  <Rbt.Parameter_File>
/home/j5wagner/env_00/source/rDock/rDock_2013.1_src//data/scripts/dock.prm

>  <Rbt.Receptor>
/extra/banzai2/j5wagner/CELPP/2016_10_17_rdock_implementation/normal_run/tutorialVideo/tutorial_rdock_implementation/full_week_run/4-docking/1fcz/hiTanimoto_1fcz_tech_prep/rDockGridGenInput.prm

>  <SCORE>
-50.1274

>  <SCORE.INTER>
-31.4131

>  <SCORE.INTER.CONST>
1

>  <SCORE.INTER.POLAR>
-2.39876

>  <SCORE.INTER.REPUL>
0

>  <SCORE.INTER.ROT>
4

>  <SCORE.INTER.VDW>
-32.6573

>  <SCORE.INTER.norm>
-1.16345

>  <SCORE.INTRA>
-2.30132

>  <SCORE.INTRA.DIHEDRAL>
-5.79237

>  <SCORE.INTRA.DIHEDRAL.0>
10.7811

>  <SCORE.INTRA.POLAR>
0

>  <SCORE.INTRA.POLAR.0>
0

>  <SCORE.INTRA.REPUL>
0

>  <SCORE.INTRA.REPUL.0>
0

>  <SCORE.INTRA.VDW>
0.594862

>  <SCORE.INTRA.VDW.0>
-0.812999

>  <SCORE.INTRA.norm>
-0.0852342

>  <SCORE.RESTR>
0

>  <SCORE.RESTR.CAVITY>
0

>  <SCORE.RESTR.norm>
0

>  <SCORE.SYSTEM>
-16.4129

>  <SCORE.SYSTEM.CONST>
0

>  <SCORE.SYSTEM.DIHEDRAL>
1.34393

>  <SCORE.SYSTEM.POLAR>
-4.42613

>  <SCORE.SYSTEM.REPUL>
0.202354

>  <SCORE.SYSTEM.VDW>
-3.0478

>  <SCORE.SYSTEM.norm>
-0.607886

>  <SCORE.heavy>
27

>  <SCORE.norm>
-1.85657

$$$$

  rDOCK(R)          3D
libRbt.so/2013.1/901 2013/11/27
 28 30  0  0  0  0  0  0  0  0999 V2000
   38.5966   13.9298   85.2241 C   0  0  0  0  0  0
   39.5672   13.1000   84.4796 C   0  0  0  0  0  0
   39.3537   11.8599   84.4072 O   0  0  0  0  0  0
   40.7814   13.6567   83.8348 C   0  0  0  0  0  0
   41.2736   13.0839   82.6561 C   0  0  0  0  0  0
   42.4470   13.5653   82.0307 C   0  0  0  0  0  0
   43.0899   14.7166   82.5780 C   0  0  0  0  0  0
   42.6135   15.2368   83.8011 C   0  0  0  0  0  0
   41.4817   14.7143   84.4190 C   0  0  0  0  0  0
   44.3284   15.3554   81.9311 C   0  0  0  0  0  0
   44.1753   16.8953   81.8567 C   0  0  0  0  0  0
   45.5718   15.0225   82.7870 C   0  0  0  0  0  0
   44.5335   14.8551   80.4798 C   0  0  0  0  0  0
   44.3644   13.3454   80.3609 C   0  0  0  0  0  0
   42.9364   12.8826   80.7438 C   0  0  0  0  0  0
   42.9984   11.3454   80.9271 C   0  0  0  0  0  0
   41.9508   13.2051   79.5972 C   0  0  0  0  0  0
   38.6458   15.2703   85.2341 C   0  0  0  0  0  0
   37.6829   16.1282   85.9677 C   0  0  0  0  0  0
   37.7872   17.5320   86.0014 C   0  0  0  0  0  0
   36.8586   18.2963   86.7148 C   0  0  0  0  0  0
   35.8075   17.6769   87.4126 C   0  0  0  0  0  0
   34.8173   18.4745   88.1766 C   0  0  0  0  0  0
   33.8447   17.8975   88.7320 O   0  0  0  0  0  0
   34.9197   19.8607   88.2892 O   0  0  0  0  0  0
   35.7214   16.2746   87.4009 C   0  0  0  0  0  0
   36.6491   15.5107   86.6880 C   0  0  0  0  0  0
   34.2851   20.4106   88.8535 H   0  0  0  0  0  0
  1  2  1  0  0  0
  2  3  2  0  0  0
  2  4  1  0  0  0
  4  5  2  0  0  0
  5  6  1  0  0  0
  6  7  2  0  0  0
  7  8  1  0  0  0
  8  9  2  0  0  0
  7 10  1  0  0  0
 10 11  1  0  0  0
 10 12  1  0  0  0
 10 13  1  0  0  0
 13 14  1  0  0  0
 14 15  1  0  0  0
 15 16  1  0  0  0
 15 17  1  0  0  0
  1 18  2  0  0  0
 18 19  1  0  0  0
 19 20  2  0  0  0
 20 21  1  0  0  0
 21 22  2  0  0  0
 22 23  1  0  0  0
 23 24  2  0  0  0
 23 25  1  0  0  0
 22 26  1  0  0  0
 26 27  2  0  0  0
  9  4  1  0  0  0
 27 19  1  0  0  0
 15  6  1  0  0  0
 25 28  1  0  0  0
M  END
>  <CHROM.0>
-159.75352685,-58.09985955,-65.81941884,-55.86410448,61.73133515,-177.19223284
63.73679839,70.41064396

>  <CHROM.1>
-172.22583079,-147.46296085,177.58531795,176.15896701,-176.11654384,40.08930293
15.19535379,84.17760990,2.59600853,0.53115207,0.31547183

>  <RI>
3.35367e+07

>  <Rbt.Current_Directory>
/extra/banzai2/j5wagner/CELPP/2016_10_17_rdock_implementation/normal_run/tutorialVideo/tutorial_rdock_implementation/full_week_run/4-docking/1fcz/hiTanimoto_1fcz_docking

>  <Rbt.Executable>
rbdock ($Id: //depot/dev/client3/rdock/2013.1/src/exe/rbdock.cxx#4 $)

>  <Rbt.Library>
libRbt.so (2013.1, Build901 2013/11/27)

>  <Rbt.Parameter_File>
/home/j5wagner/env_00/source/rDock/rDock_2013.1_src//data/scripts/dock.prm

>  <Rbt.Receptor>
/extra/banzai2/j5wagner/CELPP/2016_10_17_rdock_implementation/normal_run/tutorialVideo/tutorial_rdock_implementation/full_week_run/4-docking/1fcz/hiTanimoto_1fcz_tech_prep/rDockGridGenInput.prm

>  <SCORE>
-49.3408

>  <SCORE.INTER>
-28.7888

>  <SCORE.INTER.CONST>
1

>  <SCORE.INTER.POLAR>
-1.4535

>  <SCORE.INTER.REPUL>
0

>  <SCORE.INTER.ROT>
4

>  <SCORE.INTER.VDW>
-33.2469

>  <SCORE.INTER.norm>
-1.06625

>  <SCORE.INTRA>
-2.20335

>  <SCORE.INTRA.DIHEDRAL>
-6.2541

>  <SCORE.INTRA.DIHEDRAL.0>
10.7811

>  <SCORE.INTRA.POLAR>
0

>  <SCORE.INTRA.POLAR.0>
0

>  <SCORE.INTRA.REPUL>
0

>  <SCORE.INTRA.REPUL.0>
0

>  <SCORE.INTRA.VDW>
0.923705

>  <SCORE.INTRA.VDW.0>
-0.812999

>  <SCORE.INTRA.norm>
-0.0816054

>  <SCORE.RESTR>
0

>  <SCORE.RESTR.CAVITY>
0

>  <SCORE.RESTR.norm>
0

>  <SCORE.SYSTEM>
-18.3487

>  <SCORE.SYSTEM.CONST>
0

>  <SCORE.SYSTEM.DIHEDRAL>
1.44343

>  <SCORE.SYSTEM.POLAR>
-4.7961

>  <SCORE.SYSTEM.VDW>
-2.76362

>  <SCORE.SYSTEM.norm>
-0.67958

>  <SCORE.heavy>
27

>  <SCORE.norm>
-1.82744

$$$$

  rDOCK(R)          3D
libRbt.so/2013.1/901 2013/11/27
 28 30  0  0  0  0  0  0  0  0999 V2000
   38.5393   13.9385   85.1540 C   0  0  0  0  0  0
   39.5085   13.1088   84.4073 C   0  0  0  0  0  0
   39.2639   11.8786   84.2838 O   0  0  0  0  0  0
   40.7554   13.6540   83.8175 C   0  0  0  0  0  0
   41.2772   13.0967   82.6441 C   0  0  0  0  0  0
   42.4812   13.5671   82.0707 C   0  0  0  0  0  0
   43.1275   14.6926   82.6655 C   0  0  0  0  0  0
   42.6190   15.1960   83.8827 C   0  0  0  0  0  0
   41.4559   14.6839   84.4492 C   0  0  0  0  0  0
   44.4005   15.3193   82.0764 C   0  0  0  0  0  0
   44.2810   16.8633   82.0312 C   0  0  0  0  0  0
   45.6062   14.9421   82.9672 C   0  0  0  0  0  0
   44.6463   14.8463   80.6222 C   0  0  0  0  0  0
   44.4513   13.3434   80.4638 C   0  0  0  0  0  0
   43.0017   12.9023   80.7865 C   0  0  0  0  0  0
   43.0264   11.3605   80.9374 C   0  0  0  0  0  0
   42.0636   13.2700   79.6139 C   0  0  0  0  0  0
   38.6185   15.2765   85.2057 C   0  0  0  0  0  0
   37.6580   16.1344   85.9425 C   0  0  0  0  0  0
   37.7875   17.5347   86.0129 C   0  0  0  0  0  0
   36.8599   18.2988   86.7278 C   0  0  0  0  0  0
   35.7846   17.6826   87.3906 C   0  0  0  0  0  0
   34.7950   18.4799   88.1558 C   0  0  0  0  0  0
   33.8092   17.9059   88.6907 O   0  0  0  0  0  0
   34.9126   19.8628   88.2916 O   0  0  0  0  0  0
   35.6728   16.2828   87.3426 C   0  0  0  0  0  0
   36.5996   15.5191   86.6281 C   0  0  0  0  0  0
   34.2668   20.4138   88.8421 H   0  0  0  0  0  0
  1  2  1  0  0  0
  2  3  2  0  0  0
  2  4  1  0  0  0
  4  5  2  0  0  0
  5  6  1  0  0  0
  6  7  2  0  0  0
  7  8  1  0  0  0
  8  9  2  0  0  0
  7 10  1  0  0  0
 10 11  1  0  0  0
 10 12  1  0  0  0
 10 13  1  0  0  0
 13 14  1  0  0  0
 14 15  1  0  0  0
 15 16  1  0  0  0
 15 17  1  0  0  0
  1 18  2  0  0  0
 18 19  1  0  0  0
 19 20  2  0  0  0
 20 21  1  0  0  0
 21 22  2  0  0  0
 22 23  1  0  0  0
 23 24  2  0  0  0
 23 25  1  0  0  0
 22 26  1  0  0  0
 26 27  2  0  0  0
  9  4  1  0  0  0
 27 19  1  0  0  0
 15  6  1  0  0  0
 25 28  1  0  0  0
M  END
>  <CHROM.0>
-159.13087590,-61.25706774,-65.52216758,178.28963207,-175.86635344,-59.33108825
63.75977185,71.94907199

>  <CHROM.1>
-171.70669212,-148.43040170,178.07181418,176.90574782,-177.40118432,40.09748310
15.19360990,84.19764739,2.58062643,0.49677140,0.35229610

>  <RI>
3.35367e+07

>  <Rbt.Current_Directory>
/extra/banzai2/j5wagner/CELPP/2016_10_17_rdock_implementation/normal_run/tutorialVideo/tutorial_rdock_implementation/full_week_run/4-docking/1fcz/hiTanimoto_1fcz_docking

>  <Rbt.Executable>
rbdock ($Id: //depot/dev/client3/rdock/2013.1/src/exe/rbdock.cxx#4 $)

>  <Rbt.Library>
libRbt.so (2013.1, Build901 2013/11/27)

>  <Rbt.Parameter_File>
/home/j5wagner/env_00/source/rDock/rDock_2013.1_src//data/scripts/dock.prm

>  <Rbt.Receptor>
/extra/banzai2/j5wagner/CELPP/2016_10_17_rdock_implementation/normal_run/tutorialVideo/tutorial_rdock_implementation/full_week_run/4-docking/1fcz/hiTanimoto_1fcz_tech_prep/rDockGridGenInput.prm

>  <SCORE>
-49.2015

>  <SCORE.INTER>
-28.6266

>  <SCORE.INTER.CONST>
1

>  <SCORE.INTER.POLAR>
-1.47393

>  <SCORE.INTER.REPUL>
0

>  <SCORE.INTER.ROT>
4

>  <SCORE.INTER.VDW>
-33.0152

>  <SCORE.INTER.norm>
-1.06024

>  <SCORE.INTRA>
-2.30288

>  <SCORE.INTRA.DIHEDRAL>
-6.51594

>  <SCORE.INTRA.DIHEDRAL.0>
10.7811

>  <SCORE.INTRA.POLAR>
0

>  <SCORE.INTRA.POLAR.0>
0

>  <SCORE.INTRA.REPUL>
0

>  <SCORE.INTRA.REPUL.0>
0

>  <SCORE.INTRA.VDW>
0.95509

>  <SCORE.INTRA.VDW.0>
-0.812999

>  <SCORE.INTRA.norm>
-0.0852919

>  <SCORE.RESTR>
0

>  <SCORE.RESTR.CAVITY>
0

>  <SCORE.RESTR.norm>
0

>  <SCORE.SYSTEM>
-18.2721

>  <SCORE.SYSTEM.CONST>
0

>  <SCORE.SYSTEM.DIHEDRAL>
1.56349

>  <SCORE.SYSTEM.POLAR>
-4.80916

>  <SCORE.SYSTEM.VDW>
-2.70268

>  <SCORE.SYSTEM.norm>
-0.676744

>  <SCORE.heavy>
27

>  <SCORE.norm>
-1.82228

$$$$

  rDOCK(R)          3D
libRbt.so/2013.1/901 2013/11/27
 28 30  0  0  0  0  0  0  0  0999 V2000
   38.5033   13.8586   85.2495 C   0  0  0  0  0  0
   39.5139   13.0820   84.5004 C   0  0  0  0  0  0
   39.3456   11.8374   84.3944 O   0  0  0  0  0  0
   40.7171   13.6969   83.8888 C   0  0  0  0  0  0
   41.2191   13.2012   82.6797 C   0  0  0  0  0  0
   42.3829   13.7390   82.0831 C   0  0  0  0  0  0
   43.0048   14.8690   82.6952 C   0  0  0  0  0  0
   42.5197   15.3100   83.9458 C   0  0  0  0  0  0
   41.3981   14.7324   84.5325 C   0  0  0  0  0  0
   44.2309   15.5664   82.0862 C   0  0  0  0  0  0
   44.0492   17.1049   82.0994 C   0  0  0  0  0  0
   45.4808   15.2084   82.9224 C   0  0  0  0  0  0
   44.4442   15.1532   80.6089 C   0  0  0  0  0  0
   44.3030   13.6498   80.4044 C   0  0  0  0  0  0
   42.8841   13.1397   80.7597 C   0  0  0  0  0  0
   42.9746   11.5959   80.8554 C   0  0  0  0  0  0
   41.8919   13.5086   79.6329 C   0  0  0  0  0  0
   38.5255   15.1978   85.3221 C   0  0  0  0  0  0
   37.5224   16.0030   86.0617 C   0  0  0  0  0  0
   36.4240   15.4255   86.7268 C   0  0  0  0  0  0
   35.5007   16.2289   87.4032 C   0  0  0  0  0  0
   35.6511   17.6261   87.4282 C   0  0  0  0  0  0
   34.6777   18.4912   88.1385 C   0  0  0  0  0  0
   33.6464   17.9809   88.6518 O   0  0  0  0  0  0
   34.8604   19.8695   88.2451 O   0  0  0  0  0  0
   36.7322   18.2026   86.7404 C   0  0  0  0  0  0
   37.6550   17.3999   86.0646 C   0  0  0  0  0  0
   34.2615   20.4571   88.8104 H   0  0  0  0  0  0
  1  2  1  0  0  0
  2  3  2  0  0  0
  2  4  1  0  0  0
  4  5  2  0  0  0
  5  6  1  0  0  0
  6  7  2  0  0  0
  7  8  1  0  0  0
  8  9  2  0  0  0
  7 10  1  0  0  0
 10 11  1  0  0  0
 10 12  1  0  0  0
 10 13  1  0  0  0
 13 14  1  0  0  0
 14 15  1  0  0  0
 15 16  1  0  0  0
 15 17  1  0  0  0
  1 18  2  0  0  0
 18 19  1  0  0  0
 19 20  2  0  0  0
 20 21  1  0  0  0
 21 22  2  0  0  0
 22 23  1  0  0  0
 23 24  2  0  0  0
 23 25  1  0  0  0
 22 26  1  0  0  0
 26 27  2  0  0  0
  9  4  1  0  0  0
 27 19  1  0  0  0
 15  6  1  0  0  0
 25 28  1  0  0  0
M  END
>  <CHROM.0>
-158.23185090,-61.63343306,-64.44756101,70.16903730,58.08001381,-59.03839140
176.89761134,69.14710837

>  <CHROM.1>
-174.04055864,-145.19880763,-1.95666371,-4.97306013,-173.10820785,39.98900928
15.27255254,84.22729705,2.62085967,0.52696649,0.31349305

>  <RI>
3.35367e+07

>  <Rbt.Current_Directory>
/extra/banzai2/j5wagner/CELPP/2016_10_17_rdock_implementation/normal_run/tutorialVideo/tutorial_rdock_implementation/full_week_run/4-docking/1fcz/hiTanimoto_1fcz_docking

>  <Rbt.Executable>
rbdock ($Id: //depot/dev/client3/rdock/2013.1/src/exe/rbdock.cxx#4 $)

>  <Rbt.Library>
libRbt.so (2013.1, Build901 2013/11/27)

>  <Rbt.Parameter_File>
/home/j5wagner/env_00/source/rDock/rDock_2013.1_src//data/scripts/dock.prm

>  <Rbt.Receptor>
/extra/banzai2/j5wagner/CELPP/2016_10_17_rdock_implementation/normal_run/tutorialVideo/tutorial_rdock_implementation/full_week_run/4-docking/1fcz/hiTanimoto_1fcz_tech_prep/rDockGridGenInput.prm

>  <SCORE>
-49.1697

>  <SCORE.INTER>
-27.3363

>  <SCORE.INTER.CONST>
1

>  <SCORE.INTER.POLAR>
-1.01641

>  <SCORE.INTER.REPUL>
0

>  <SCORE.INTER.ROT>
4

>  <SCORE.INTER.VDW>
-33.2805

>  <SCORE.INTER.norm>
-1.01246

>  <SCORE.INTRA>
-2.25088

>  <SCORE.INTRA.DIHEDRAL>
-5.58714

>  <SCORE.INTRA.DIHEDRAL.0>
10.7811

>  <SCORE.INTRA.POLAR>
0

>  <SCORE.INTRA.POLAR.0>
0

>  <SCORE.INTRA.REPUL>
0

>  <SCORE.INTRA.REPUL.0>
0

>  <SCORE.INTRA.VDW>
0.542689

>  <SCORE.INTRA.VDW.0>
-0.812999

>  <SCORE.INTRA.norm>
-0.0833659

>  <SCORE.RESTR>
0

>  <SCORE.RESTR.CAVITY>
0

>  <SCORE.RESTR.norm>
0

>  <SCORE.SYSTEM>
-19.5824

>  <SCORE.SYSTEM.CONST>
0

>  <SCORE.SYSTEM.DIHEDRAL>
1.71708

>  <SCORE.SYSTEM.POLAR>
-5.00214

>  <SCORE.SYSTEM.VDW>
-3.43371

>  <SCORE.SYSTEM.norm>
-0.725276

>  <SCORE.heavy>
27

>  <SCORE.norm>
-1.8211

$$$$

  rDOCK(R)          3D
libRbt.so/2013.1/901 2013/11/27
 28 30  0  0  0  0  0  0  0  0999 V2000
   38.7183   13.9558   85.1947 C   0  0  0  0  0  0
   39.7426   13.2019   84.4413 C   0  0  0  0  0  0
   39.5914   11.9565   84.3197 O   0  0  0  0  0  0
   40.9403   13.8400   83.8428 C   0  0  0  0  0  0
   41.5036   13.3143   82.6741 C   0  0  0  0  0  0
   42.6646   13.8746   82.0927 C   0  0  0  0  0  0
   43.2185   15.0551   82.6741 C   0  0  0  0  0  0
   42.6728   15.5286   83.8872 C   0  0  0  0  0  0
   41.5559   14.9300   84.4619 C   0  0  0  0  0  0
   44.4355   15.7766   82.0753 C   0  0  0  0  0  0
   44.1911   17.3053   82.0142 C   0  0  0  0  0  0
   45.6692   15.5079   82.9671 C   0  0  0  0  0  0
   44.7165   15.3096   80.6256 C   0  0  0  0  0  0
   44.6438   13.7942   80.4835 C   0  0  0  0  0  0
   43.2353   13.2405   80.8144 C   0  0  0  0  0  0
   43.3851   11.7075   80.9815 C   0  0  0  0  0  0
   42.2686   13.5184   79.6403 C   0  0  0  0  0  0
   38.6865   15.2963   85.2329 C   0  0  0  0  0  0
   37.6683   16.0790   85.9759 C   0  0  0  0  0  0
   36.6047   15.4751   86.6736 C   0  0  0  0  0  0
   35.6650   16.2577   87.3519 C   0  0  0  0  0  0
   35.7639   17.6596   87.3465 C   0  0  0  0  0  0
   34.7725   18.5026   88.0585 C   0  0  0  0  0  0
   34.9131   19.7545   88.0742 O   0  0  0  0  0  0
   33.6850   17.9477   88.7324 O   0  0  0  0  0  0
   36.8098   18.2614   86.6266 C   0  0  0  0  0  0
   37.7489   17.4796   85.9488 C   0  0  0  0  0  0
   33.5506   16.9490   88.8220 H   0  0  0  0  0  0
  1  2  1  0  0  0
  2  3  2  0  0  0
  2  4  1  0  0  0
  4  5  2  0  0  0
  5  6  1  0  0  0
  6  7  2  0  0  0
  7  8  1  0  0  0
  8  9  2  0  0  0
  7 10  1  0  0  0
 10 11  1  0  0  0
 10 12  1  0  0  0
 10 13  1  0  0  0
 13 14  1  0  0  0
 14 15  1  0  0  0
 15 16  1  0  0  0
 15 17  1  0  0  0
  1 18  2  0  0  0
 18 19  1  0  0  0
 19 20  2  0  0  0
 20 21  1  0  0  0
 21 22  2  0  0  0
 22 23  1  0  0  0
 23 24  2  0  0  0
 23 25  1  0  0  0
 22 26  1  0  0  0
 26 27  2  0  0  0
  9  4  1  0  0  0
 27 19  1  0  0  0
 15  6  1  0  0  0
 25 28  1  0  0  0
M  END
>  <CHROM.0>
-159.09358103,60.19667364,-64.98758100,176.40839215,-55.37165935,-59.47777535
-179.76605328,70.54356753

>  <CHROM.1>
-170.90164517,-149.14117771,-2.44115480,177.57731664,4.12912690,40.18695562
15.36643275,84.19498790,2.65742437,0.52597866,0.29049150

>  <RI>
3.35367e+07

>  <Rbt.Current_Directory>
/extra/banzai2/j5wagner/CELPP/2016_10_17_rdock_implementation/normal_run/tutorialVideo/tutorial_rdock_implementation/full_week_run/4-docking/1fcz/hiTanimoto_1fcz_docking

>  <Rbt.Executable>
rbdock ($Id: //depot/dev/client3/rdock/2013.1/src/exe/rbdock.cxx#4 $)

>  <Rbt.Library>
libRbt.so (2013.1, Build901 2013/11/27)

>  <Rbt.Parameter_File>
/home/j5wagner/env_00/source/rDock/rDock_2013.1_src//data/scripts/dock.prm

>  <Rbt.Receptor>
/extra/banzai2/j5wagner/CELPP/2016_10_17_rdock_implementation/normal_run/tutorialVideo/tutorial_rdock_implementation/full_week_run/4-docking/1fcz/hiTanimoto_1fcz_tech_prep/rDockGridGenInput.prm

>  <SCORE>
-49.0649

>  <SCORE.INTER>
-28.313

>  <SCORE.INTER.CONST>
1

>  <SCORE.INTER.POLAR>
-1.11145

>  <SCORE.INTER.REPUL>
0

>  <SCORE.INTER.ROT>
4

>  <SCORE.INTER.VDW>
-33.9341

>  <SCORE.INTER.norm>
-1.04863

>  <SCORE.INTRA>
-2.61038

>  <SCORE.INTRA.DIHEDRAL>
-6.54119

>  <SCORE.INTRA.DIHEDRAL.0>
10.7811

>  <SCORE.INTRA.POLAR>
0

>  <SCORE.INTRA.POLAR.0>
0

>  <SCORE.INTRA.REPUL>
0

>  <SCORE.INTRA.REPUL.0>
0

>  <SCORE.INTRA.VDW>
0.660222

>  <SCORE.INTRA.VDW.0>
-0.812999

>  <SCORE.INTRA.norm>
-0.0966806

>  <SCORE.RESTR>
0

>  <SCORE.RESTR.CAVITY>
0

>  <SCORE.RESTR.norm>
0

>  <SCORE.SYSTEM>
-18.1415

>  <SCORE.SYSTEM.CONST>
0

>  <SCORE.SYSTEM.DIHEDRAL>
1.37726

>  <SCORE.SYSTEM.POLAR>
-4.75039

>  <SCORE.SYSTEM.VDW>
-2.67885

>  <SCORE.SYSTEM.norm>
-0.671909

>  <SCORE.heavy>
27

>  <SCORE.norm>
-1.81722

$$$$

  rDOCK(R)          3D
libRbt.so/2013.1/901 2013/11/27
 28 30  0  0  0  0  0  0  0  0999 V2000
   38.6040   13.9484   85.2366 C   0  0  0  0  0  0
   39.5701   13.1143   84.4908 C   0  0  0  0  0  0
   39.3516   11.8750   84.4195 O   0  0  0  0  0  0
   40.7852   13.6659   83.8435 C   0  0  0  0  0  0
   41.2294   13.1400   82.6245 C   0  0  0  0  0  0
   42.4018   13.6168   81.9938 C   0  0  0  0  0  0
   43.0949   14.7177   82.5820 C   0  0  0  0  0  0
   42.6660   15.1882   83.8422 C   0  0  0  0  0  0
   41.5335   14.6696   84.4623 C   0  0  0  0  0  0
   44.3370   15.3506   81.9361 C   0  0  0  0  0  0
   44.2318   16.8963   81.9446 C   0  0  0  0  0  0
   45.5898   14.9354   82.7408 C   0  0  0  0  0  0
   44.4898   14.9201   80.4562 C   0  0  0  0  0  0
   44.2692   13.4246   80.2649 C   0  0  0  0  0  0
   42.8370   12.9870   80.6611 C   0  0  0  0  0  0
   42.8538   11.4411   80.7640 C   0  0  0  0  0  0
   41.8342   13.3989   79.5589 C   0  0  0  0  0  0
   38.6506   15.2889   85.2350 C   0  0  0  0  0  0
   37.6921   16.1510   85.9695 C   0  0  0  0  0  0
   37.8141   17.5529   86.0200 C   0  0  0  0  0  0
   36.8888   18.3211   86.7336 C   0  0  0  0  0  0
   35.8236   17.7076   87.4149 C   0  0  0  0  0  0
   34.8367   18.5094   88.1789 C   0  0  0  0  0  0
   33.8594   17.9370   88.7308 O   0  0  0  0  0  0
   34.9475   19.8946   88.2952 O   0  0  0  0  0  0
   35.7196   16.3067   87.3867 C   0  0  0  0  0  0
   36.6440   15.5389   86.6736 C   0  0  0  0  0  0
   34.2935   20.4512   88.8301 H   0  0  0  0  0  0
  1  2  1  0  0  0
  2  3  2  0  0  0
  2  4  1  0  0  0
  4  5  2  0  0  0
  5  6  1  0  0  0
  6  7  2  0  0  0
  7  8  1  0  0  0
  8  9  2  0  0  0
  7 10  1  0  0  0
 10 11  1  0  0  0
 10 12  1  0  0  0
 10 13  1  0  0  0
 13 14  1  0  0  0
 14 15  1  0  0  0
 15 16  1  0  0  0
 15 17  1  0  0  0
  1 18  2  0  0  0
 18 19  1  0  0  0
 19 20  2  0  0  0
 20 21  1  0  0  0
 21 22  2  0  0  0
 22 23  1  0  0  0
 23 24  2  0  0  0
 23 25  1  0  0  0
 22 26  1  0  0  0
 26 27  2  0  0  0
  9  4  1  0  0  0
 27 19  1  0  0  0
 15  6  1  0  0  0
 25 28  1  0  0  0
M  END
>  <CHROM.0>
-160.47267709,60.41413068,-66.53342212,-54.67333216,-174.91687013,62.14539971
65.00889229,71.02735494

>  <CHROM.1>
-171.55704965,-143.81381291,175.86550805,176.89999442,-178.59763630,40.07976260
15.22593035,84.16696126,2.58665087,0.52831649,0.33337426

>  <RI>
3.35367e+07

>  <Rbt.Current_Directory>
/extra/banzai2/j5wagner/CELPP/2016_10_17_rdock_implementation/normal_run/tutorialVideo/tutorial_rdock_implementation/full_week_run/4-docking/1fcz/hiTanimoto_1fcz_docking

>  <Rbt.Executable>
rbdock ($Id: //depot/dev/client3/rdock/2013.1/src/exe/rbdock.cxx#4 $)

>  <Rbt.Library>
libRbt.so (2013.1, Build901 2013/11/27)

>  <Rbt.Parameter_File>
/home/j5wagner/env_00/source/rDock/rDock_2013.1_src//data/scripts/dock.prm

>  <Rbt.Receptor>
/extra/banzai2/j5wagner/CELPP/2016_10_17_rdock_implementation/normal_run/tutorialVideo/tutorial_rdock_implementation/full_week_run/4-docking/1fcz/hiTanimoto_1fcz_tech_prep/rDockGridGenInput.prm

>  <SCORE>
-49.0262

>  <SCORE.INTER>
-28.8502

>  <SCORE.INTER.CONST>
1

>  <SCORE.INTER.POLAR>
-1.38897

>  <SCORE.INTER.REPUL>
0

>  <SCORE.INTER.ROT>
4

>  <SCORE.INTER.VDW>
-33.5277

>  <SCORE.INTER.norm>
-1.06853

>  <SCORE.INTRA>
-1.99497

>  <SCORE.INTRA.DIHEDRAL>
-5.53558

>  <SCORE.INTRA.DIHEDRAL.0>
10.7811

>  <SCORE.INTRA.POLAR>
0

>  <SCORE.INTRA.POLAR.0>
0

>  <SCORE.INTRA.REPUL>
0

>  <SCORE.INTRA.REPUL.0>
0

>  <SCORE.INTRA.VDW>
0.772817

>  <SCORE.INTRA.VDW.0>
-0.812999

>  <SCORE.INTRA.norm>
-0.0738878

>  <SCORE.RESTR>
0

>  <SCORE.RESTR.CAVITY>
0

>  <SCORE.RESTR.norm>
0

>  <SCORE.SYSTEM>
-18.1811

>  <SCORE.SYSTEM.CONST>
0

>  <SCORE.SYSTEM.DIHEDRAL>
1.65858

>  <SCORE.SYSTEM.POLAR>
-4.74536

>  <SCORE.SYSTEM.VDW>
-2.87611

>  <SCORE.SYSTEM.norm>
-0.673373

>  <SCORE.heavy>
27

>  <SCORE.norm>
-1.81579

$$$$

  rDOCK(R)          3D
libRbt.so/2013.1/901 2013/11/27
 28 30  0  0  0  0  0  0  0  0999 V2000
   38.5921   13.8350   85.3436 C   0  0  0  0  0  0
   39.6268   13.0698   84.6162 C   0  0  0  0  0  0
   39.5101   11.8158   84.5654 O   0  0  0  0  0  0
   40.7967   13.7073   83.9646 C   0  0  0  0  0  0
   41.2797   13.2081   82.7492 C   0  0  0  0  0  0
   42.4127   13.7679   82.1147 C   0  0  0  0  0  0
   43.0203   14.9223   82.6949 C   0  0  0  0  0  0
   42.5567   15.3678   83.9520 C   0  0  0  0  0  0
   41.4667   14.7692   84.5761 C   0  0  0  0  0  0
   44.2109   15.6429   82.0442 C   0  0  0  0  0  0
   43.9889   17.1762   82.0418 C   0  0  0  0  0  0
   45.4915   15.3296   82.8513 C   0  0  0  0  0  0
   44.3961   15.2149   80.5673 C   0  0  0  0  0  0
   44.2896   13.7056   80.3866 C   0  0  0  0  0  0
   42.8946   13.1635   80.7864 C   0  0  0  0  0  0
   43.0286   11.6241   80.9001 C   0  0  0  0  0  0
   41.8637   13.4904   79.6817 C   0  0  0  0  0  0
   38.5843   15.1754   85.3962 C   0  0  0  0  0  0
   37.5566   15.9693   86.1137 C   0  0  0  0  0  0
   36.5033   15.3755   86.8352 C   0  0  0  0  0  0
   35.5540   16.1681   87.4879 C   0  0  0  0  0  0
   35.6328   17.5703   87.4325 C   0  0  0  0  0  0
   34.6308   18.4238   88.1168 C   0  0  0  0  0  0
   33.7040   17.8889   88.7818 O   0  0  0  0  0  0
   34.6721   19.8153   88.0348 O   0  0  0  0  0  0
   36.6682   18.1610   86.6888 C   0  0  0  0  0  0
   37.6171   17.3691   86.0367 C   0  0  0  0  0  0
   35.3775   20.3098   87.5044 H   0  0  0  0  0  0
  1  2  1  0  0  0
  2  3  2  0  0  0
  2  4  1  0  0  0
  4  5  2  0  0  0
  5  6  1  0  0  0
  6  7  2  0  0  0
  7  8  1  0  0  0
  8  9  2  0  0  0
  7 10  1  0  0  0
 10 11  1  0  0  0
 10 12  1  0  0  0
 10 13  1  0  0  0
 13 14  1  0  0  0
 14 15  1  0  0  0
 15 16  1  0  0  0
 15 17  1  0  0  0
  1 18  2  0  0  0
 18 19  1  0  0  0
 19 20  2  0  0  0
 20 21  1  0  0  0
 21 22  2  0  0  0
 22 23  1  0  0  0
 23 24  2  0  0  0
 23 25  1  0  0  0
 22 26  1  0  0  0
 26 27  2  0  0  0
  9  4  1  0  0  0
 27 19  1  0  0  0
 15  6  1  0  0  0
 25 28  1  0  0  0
M  END
>  <CHROM.0>
-0.02055715,178.09167074,-66.01874111,-56.17707256,-56.33371195,59.76696679
179.04278943,70.03024614

>  <CHROM.1>
-176.34950153,-143.10496691,1.44570581,1.32274762,0.39840790,40.00915705
15.27388099,84.24633380,2.66466666,0.55731570,0.24968450

>  <RI>
3.35367e+07

>  <Rbt.Current_Directory>
/extra/banzai2/j5wagner/CELPP/2016_10_17_rdock_implementation/normal_run/tutorialVideo/tutorial_rdock_implementation/full_week_run/4-docking/1fcz/hiTanimoto_1fcz_docking

>  <Rbt.Executable>
rbdock ($Id: //depot/dev/client3/rdock/2013.1/src/exe/rbdock.cxx#4 $)

>  <Rbt.Library>
libRbt.so (2013.1, Build901 2013/11/27)

>  <Rbt.Parameter_File>
/home/j5wagner/env_00/source/rDock/rDock_2013.1_src//data/scripts/dock.prm

>  <Rbt.Receptor>
/extra/banzai2/j5wagner/CELPP/2016_10_17_rdock_implementation/normal_run/tutorialVideo/tutorial_rdock_implementation/full_week_run/4-docking/1fcz/hiTanimoto_1fcz_tech_prep/rDockGridGenInput.prm

>  <SCORE>
-48.9549

>  <SCORE.INTER>
-31.5842

>  <SCORE.INTER.CONST>
1

>  <SCORE.INTER.POLAR>
-1.88982

>  <SCORE.INTER.REPUL>
0

>  <SCORE.INTER.ROT>
4

>  <SCORE.INTER.VDW>
-34.5588

>  <SCORE.INTER.norm>
-1.16979

>  <SCORE.INTRA>
-2.34299

>  <SCORE.INTRA.DIHEDRAL>
-5.67134

>  <SCORE.INTRA.DIHEDRAL.0>
10.7811

>  <SCORE.INTRA.POLAR>
0

>  <SCORE.INTRA.POLAR.0>
0

>  <SCORE.INTRA.REPUL>
0

>  <SCORE.INTRA.REPUL.0>
0

>  <SCORE.INTRA.VDW>
0.492687

>  <SCORE.INTRA.VDW.0>
-0.812999

>  <SCORE.INTRA.norm>
-0.0867773

>  <SCORE.RESTR>
0

>  <SCORE.RESTR.CAVITY>
0

>  <SCORE.RESTR.norm>
0

>  <SCORE.SYSTEM>
-15.0277

>  <SCORE.SYSTEM.CONST>
0

>  <SCORE.SYSTEM.DIHEDRAL>
0.789112

>  <SCORE.SYSTEM.POLAR>
-4.20182

>  <SCORE.SYSTEM.REPUL>
0.202354

>  <SCORE.SYSTEM.VDW>
-2.14781

>  <SCORE.SYSTEM.norm>
-0.556581

>  <SCORE.heavy>
27

>  <SCORE.norm>
-1.81314

$$$$

  rDOCK(R)          3D
libRbt.so/2013.1/901 2013/11/27
 28 30  0  0  0  0  0  0  0  0999 V2000
   38.6107   13.9756   85.1835 C   0  0  0  0  0  0
   39.6033   13.1517   84.4615 C   0  0  0  0  0  0
   39.3827   11.9152   84.3563 O   0  0  0  0  0  0
   40.8465   13.7100   83.8762 C   0  0  0  0  0  0
   41.3553   13.1856   82.6821 C   0  0  0  0  0  0
   42.5554   13.6688   82.1112 C   0  0  0  0  0  0
   43.2111   14.7744   82.7324 C   0  0  0  0  0  0
   42.7158   15.2436   83.9687 C   0  0  0  0  0  0
   41.5563   14.7188   84.5309 C   0  0  0  0  0  0
   44.4806   15.4142   82.1498 C   0  0  0  0  0  0
   44.3659   16.9592   82.1509 C   0  0  0  0  0  0
   45.6933   15.0073   83.0178 C   0  0  0  0  0  0
   44.7111   14.9831   80.6802 C   0  0  0  0  0  0
   44.5095   13.4862   80.4798 C   0  0  0  0  0  0
   43.0615   13.0403   80.8032 C   0  0  0  0  0  0
   43.0824   11.4947   80.9088 C   0  0  0  0  0  0
   42.1137   13.4451   79.6509 C   0  0  0  0  0  0
   38.6870   15.3133   85.2466 C   0  0  0  0  0  0
   37.7033   16.1655   85.9591 C   0  0  0  0  0  0
   37.7959   17.5702   85.9908 C   0  0  0  0  0  0
   36.8476   18.3289   86.6841 C   0  0  0  0  0  0
   35.7882   17.7031   87.3632 C   0  0  0  0  0  0
   34.7771   18.4948   88.1058 C   0  0  0  0  0  0
   34.8951   19.7470   88.1799 O   0  0  0  0  0  0
   33.6953   17.8904   88.7454 O   0  0  0  0  0  0
   35.7134   16.3000   87.3538 C   0  0  0  0  0  0
   36.6608   15.5417   86.6610 C   0  0  0  0  0  0
   33.5540   16.8886   88.7492 H   0  0  0  0  0  0
  1  2  1  0  0  0
  2  3  2  0  0  0
  2  4  1  0  0  0
  4  5  2  0  0  0
  5  6  1  0  0  0
  6  7  2  0  0  0
  7  8  1  0  0  0
  8  9  2  0  0  0
  7 10  1  0  0  0
 10 11  1  0  0  0
 10 12  1  0  0  0
 10 13  1  0  0  0
 13 14  1  0  0  0
 14 15  1  0  0  0
 15 16  1  0  0  0
 15 17  1  0  0  0
  1 18  2  0  0  0
 18 19  1  0  0  0
 19 20  2  0  0  0
 20 21  1  0  0  0
 21 22  2  0  0  0
 22 23  1  0  0  0
 23 24  2  0  0  0
 23 25  1  0  0  0
 22 26  1  0  0  0
 26 27  2  0  0  0
  9  4  1  0  0  0
 27 19  1  0  0  0
 15  6  1  0  0  0
 25 28  1  0  0  0
M  END
>  <CHROM.0>
-158.77149764,60.76266035,-65.72482446,174.62701598,-178.56236166,63.45718915
-177.65290891,69.92607176

>  <CHROM.1>
-173.74435353,-145.28024201,-178.93142035,-3.00541087,1.04653424,40.14672339
15.24181767,84.22577301,2.60382360,0.49471949,0.34545303

>  <RI>
3.35367e+07

>  <Rbt.Current_Directory>
/extra/banzai2/j5wagner/CELPP/2016_10_17_rdock_implementation/normal_run/tutorialVideo/tutorial_rdock_implementation/full_week_run/4-docking/1fcz/hiTanimoto_1fcz_docking

>  <Rbt.Executable>
rbdock ($Id: //depot/dev/client3/rdock/2013.1/src/exe/rbdock.cxx#4 $)

>  <Rbt.Library>
libRbt.so (2013.1, Build901 2013/11/27)

>  <Rbt.Parameter_File>
/home/j5wagner/env_00/source/rDock/rDock_2013.1_src//data/scripts/dock.prm

>  <Rbt.Receptor>
/extra/banzai2/j5wagner/CELPP/2016_10_17_rdock_implementation/normal_run/tutorialVideo/tutorial_rdock_implementation/full_week_run/4-docking/1fcz/hiTanimoto_1fcz_tech_prep/rDockGridGenInput.prm

>  <SCORE>
-48.8022

>  <SCORE.INTER>
-28.4861

>  <SCORE.INTER.CONST>
1

>  <SCORE.INTER.POLAR>
-1.05367

>  <SCORE.INTER.REPUL>
0

>  <SCORE.INTER.ROT>
4

>  <SCORE.INTER.VDW>
-34.3036

>  <SCORE.INTER.norm>
-1.05504

>  <SCORE.INTRA>
-2.17324

>  <SCORE.INTRA.DIHEDRAL>
-6.0021

>  <SCORE.INTRA.DIHEDRAL.0>
10.7811

>  <SCORE.INTRA.POLAR>
0

>  <SCORE.INTRA.POLAR.0>
0

>  <SCORE.INTRA.REPUL>
0

>  <SCORE.INTRA.REPUL.0>
0

>  <SCORE.INTRA.VDW>
0.827814

>  <SCORE.INTRA.VDW.0>
-0.812999

>  <SCORE.INTRA.norm>
-0.0804903

>  <SCORE.RESTR>
0

>  <SCORE.RESTR.CAVITY>
0

>  <SCORE.RESTR.norm>
0

>  <SCORE.SYSTEM>
-18.1428

>  <SCORE.SYSTEM.CONST>
0

>  <SCORE.SYSTEM.DIHEDRAL>
1.46163

>  <SCORE.SYSTEM.POLAR>
-4.75368

>  <SCORE.SYSTEM.VDW>
-2.71114

>  <SCORE.SYSTEM.norm>
-0.671957

>  <SCORE.heavy>
27

>  <SCORE.norm>
-1.80749

$$$$

  rDOCK(R)          3D
libRbt.so/2013.1/901 2013/11/27
 28 30  0  0  0  0  0  0  0  0999 V2000
   39.0899   13.6079   85.0773 C   0  0  0  0  0  0
   40.1276   12.9154   84.2843 C   0  0  0  0  0  0
   40.0137   11.6713   84.1174 O   0  0  0  0  0  0
   41.2973   13.6128   83.6967 C   0  0  0  0  0  0
   41.8619   13.1493   82.5026 C   0  0  0  0  0  0
   42.9975   13.7672   81.9296 C   0  0  0  0  0  0
   43.5217   14.9420   82.5489 C   0  0  0  0  0  0
   42.9769   15.3523   83.7852 C   0  0  0  0  0  0
   41.8865   14.6977   84.3495 C   0  0  0  0  0  0
   44.7081   15.7234   81.9639 C   0  0  0  0  0  0
   44.4157   17.2449   81.9635 C   0  0  0  0  0  0
   45.9608   15.4606   82.8308 C   0  0  0  0  0  0
   44.9852   15.3201   80.4945 C   0  0  0  0  0  0
   44.9578   13.8096   80.2960 C   0  0  0  0  0  0
   43.5714   13.1998   80.6218 C   0  0  0  0  0  0
   43.7709   11.6671   80.7290 C   0  0  0  0  0  0
   42.5819   13.4909   79.4702 C   0  0  0  0  0  0
   38.9400   14.9409   85.0687 C   0  0  0  0  0  0
   37.9051   15.6622   85.8499 C   0  0  0  0  0  0
   37.1140   15.0314   86.8292 C   0  0  0  0  0  0
   36.1451   15.7535   87.5328 C   0  0  0  0  0  0
   35.9419   17.1197   87.2730 C   0  0  0  0  0  0
   34.9153   17.8975   88.0089 C   0  0  0  0  0  0
   34.5066   18.9933   87.5403 O   0  0  0  0  0  0
   34.3923   17.4584   89.2247 O   0  0  0  0  0  0
   36.7129   17.7407   86.2759 C   0  0  0  0  0  0
   37.6813   17.0194   85.5727 C   0  0  0  0  0  0
   33.7084   17.9895   89.7480 H   0  0  0  0  0  0
  1  2  1  0  0  0
  2  3  2  0  0  0
  2  4  1  0  0  0
  4  5  2  0  0  0
  5  6  1  0  0  0
  6  7  2  0  0  0
  7  8  1  0  0  0
  8  9  2  0  0  0
  7 10  1  0  0  0
 10 11  1  0  0  0
 10 12  1  0  0  0
 10 13  1  0  0  0
 13 14  1  0  0  0
 14 15  1  0  0  0
 15 16  1  0  0  0
 15 17  1  0  0  0
  1 18  2  0  0  0
 18 19  1  0  0  0
 19 20  2  0  0  0
 20 21  1  0  0  0
 21 22  2  0  0  0
 22 23  1  0  0  0
 23 24  2  0  0  0
 23 25  1  0  0  0
 22 26  1  0  0  0
 26 27  2  0  0  0
  9  4  1  0  0  0
 27 19  1  0  0  0
 15  6  1  0  0  0
 25 28  1  0  0  0
M  END
>  <CHROM.0>
-15.44957902,-63.65085310,-64.94856728,68.18020134,-56.77039155,61.26586764
-175.90934174,71.07063147

>  <CHROM.1>
-164.57411336,-149.14018488,9.90480460,-161.45241891,178.49276900,40.46433606
15.10092284,84.07327077,2.72264576,0.55690453,0.25128678

>  <RI>
3.35367e+07

>  <Rbt.Current_Directory>
/extra/banzai2/j5wagner/CELPP/2016_10_17_rdock_implementation/normal_run/tutorialVideo/tutorial_rdock_implementation/full_week_run/4-docking/1fcz/hiTanimoto_1fcz_docking

>  <Rbt.Executable>
rbdock ($Id: //depot/dev/client3/rdock/2013.1/src/exe/rbdock.cxx#4 $)

>  <Rbt.Library>
libRbt.so (2013.1, Build901 2013/11/27)

>  <Rbt.Parameter_File>
/home/j5wagner/env_00/source/rDock/rDock_2013.1_src//data/scripts/dock.prm

>  <Rbt.Receptor>
/extra/banzai2/j5wagner/CELPP/2016_10_17_rdock_implementation/normal_run/tutorialVideo/tutorial_rdock_implementation/full_week_run/4-docking/1fcz/hiTanimoto_1fcz_tech_prep/rDockGridGenInput.prm

>  <SCORE>
-48.3904

>  <SCORE.INTER>
-30.1972

>  <SCORE.INTER.CONST>
1

>  <SCORE.INTER.POLAR>
-1.72334

>  <SCORE.INTER.REPUL>
0

>  <SCORE.INTER.ROT>
4

>  <SCORE.INTER.VDW>
-33.7378

>  <SCORE.INTER.norm>
-1.11841

>  <SCORE.INTRA>
-1.76338

>  <SCORE.INTRA.DIHEDRAL>
-4.46756

>  <SCORE.INTRA.DIHEDRAL.0>
10.7811

>  <SCORE.INTRA.POLAR>
0

>  <SCORE.INTRA.POLAR.0>
0

>  <SCORE.INTRA.REPUL>
0

>  <SCORE.INTRA.REPUL.0>
0

>  <SCORE.INTRA.VDW>
0.470403

>  <SCORE.INTRA.VDW.0>
-0.812999

>  <SCORE.INTRA.norm>
-0.0653103

>  <SCORE.RESTR>
0

>  <SCORE.RESTR.CAVITY>
0

>  <SCORE.RESTR.norm>
0

>  <SCORE.SYSTEM>
-16.4299

>  <SCORE.SYSTEM.CONST>
0

>  <SCORE.SYSTEM.DIHEDRAL>
1.53842

>  <SCORE.SYSTEM.POLAR>
-4.44096

>  <SCORE.SYSTEM.REPUL>
0.202354

>  <SCORE.SYSTEM.VDW>
-3.11156

>  <SCORE.SYSTEM.norm>
-0.608513

>  <SCORE.heavy>
27

>  <SCORE.norm>
-1.79224

$$$$

  rDOCK(R)          3D
libRbt.so/2013.1/901 2013/11/27
 28 30  0  0  0  0  0  0  0  0999 V2000
   38.5912   13.9518   85.2479 C   0  0  0  0  0  0
   39.5636   13.1177   84.5105 C   0  0  0  0  0  0
   39.3609   11.8747   84.4615 O   0  0  0  0  0  0
   40.7676   13.6739   83.8465 C   0  0  0  0  0  0
   41.2539   13.0871   82.6722 C   0  0  0  0  0  0
   42.4178   13.5680   82.0291 C   0  0  0  0  0  0
   43.0567   14.7322   82.5533 C   0  0  0  0  0  0
   42.5872   15.2671   83.7727 C   0  0  0  0  0  0
   41.4649   14.7454   84.4085 C   0  0  0  0  0  0
   44.2844   15.3706   81.8858 C   0  0  0  0  0  0
   44.1188   16.9080   81.7898 C   0  0  0  0  0  0
   45.5380   15.0601   82.7354 C   0  0  0  0  0  0
   44.4805   14.8501   80.4403 C   0  0  0  0  0  0
   44.3220   13.3376   80.3456 C   0  0  0  0  0  0
   42.9011   12.8698   80.7482 C   0  0  0  0  0  0
   42.9765   11.3360   80.9539 C   0  0  0  0  0  0
   41.9029   13.1675   79.6058 C   0  0  0  0  0  0
   38.6190   15.2927   85.2217 C   0  0  0  0  0  0
   37.6537   16.1547   85.9473 C   0  0  0  0  0  0
   37.7303   17.5606   85.9344 C   0  0  0  0  0  0
   36.8007   18.3290   86.6421 C   0  0  0  0  0  0
   35.7764   17.7119   87.3805 C   0  0  0  0  0  0
   34.7855   18.5141   88.1390 C   0  0  0  0  0  0
   33.8263   17.9377   88.7179 O   0  0  0  0  0  0
   34.8727   19.9034   88.2209 O   0  0  0  0  0  0
   35.7184   16.3085   87.4150 C   0  0  0  0  0  0
   36.6471   15.5404   86.7077 C   0  0  0  0  0  0
   34.2836   20.4518   88.8339 H   0  0  0  0  0  0
  1  2  1  0  0  0
  2  3  2  0  0  0
  2  4  1  0  0  0
  4  5  2  0  0  0
  5  6  1  0  0  0
  6  7  2  0  0  0
  7  8  1  0  0  0
  8  9  2  0  0  0
  7 10  1  0  0  0
 10 11  1  0  0  0
 10 12  1  0  0  0
 10 13  1  0  0  0
 13 14  1  0  0  0
 14 15  1  0  0  0
 15 16  1  0  0  0
 15 17  1  0  0  0
  1 18  2  0  0  0
 18 19  1  0  0  0
 19 20  2  0  0  0
 20 21  1  0  0  0
 21 22  2  0  0  0
 22 23  1  0  0  0
 23 24  2  0  0  0
 23 25  1  0  0  0
 22 26  1  0  0  0
 26 27  2  0  0  0
  9  4  1  0  0  0
 27 19  1  0  0  0
 15  6  1  0  0  0
 25 28  1  0  0  0
M  END
>  <CHROM.0>
-3.96159582,179.64974270,-62.69147481,67.78395813,-176.15568136,61.08954179
63.54232000,70.65789519

>  <CHROM.1>
-171.44701438,-147.27993995,178.05373531,175.25367395,-171.40497646,40.06036680
15.21301289,84.16274273,2.60513699,0.54153898,0.29158776

>  <RI>
3.35367e+07

>  <Rbt.Current_Directory>
/extra/banzai2/j5wagner/CELPP/2016_10_17_rdock_implementation/normal_run/tutorialVideo/tutorial_rdock_implementation/full_week_run/4-docking/1fcz/hiTanimoto_1fcz_docking

>  <Rbt.Executable>
rbdock ($Id: //depot/dev/client3/rdock/2013.1/src/exe/rbdock.cxx#4 $)

>  <Rbt.Library>
libRbt.so (2013.1, Build901 2013/11/27)

>  <Rbt.Parameter_File>
/home/j5wagner/env_00/source/rDock/rDock_2013.1_src//data/scripts/dock.prm

>  <Rbt.Receptor>
/extra/banzai2/j5wagner/CELPP/2016_10_17_rdock_implementation/normal_run/tutorialVideo/tutorial_rdock_implementation/full_week_run/4-docking/1fcz/hiTanimoto_1fcz_tech_prep/rDockGridGenInput.prm

>  <SCORE>
-47.0055

>  <SCORE.INTER>
-28.8497

>  <SCORE.INTER.CONST>
1

>  <SCORE.INTER.POLAR>
-1.45228

>  <SCORE.INTER.REPUL>
0

>  <SCORE.INTER.ROT>
4

>  <SCORE.INTER.VDW>
-33.3119

>  <SCORE.INTER.norm>
-1.06851

>  <SCORE.INTRA>
-1.95307

>  <SCORE.INTRA.DIHEDRAL>
-5.70646

>  <SCORE.INTRA.DIHEDRAL.0>
10.7811

>  <SCORE.INTRA.POLAR>
0

>  <SCORE.INTRA.POLAR.0>
0

>  <SCORE.INTRA.REPUL>
0

>  <SCORE.INTRA.REPUL.0>
0

>  <SCORE.INTRA.VDW>
0.900162

>  <SCORE.INTRA.VDW.0>
-0.812999

>  <SCORE.INTRA.norm>
-0.0723358

>  <SCORE.RESTR>
0

>  <SCORE.RESTR.CAVITY>
0

>  <SCORE.RESTR.norm>
0

>  <SCORE.SYSTEM>
-16.2027

>  <SCORE.SYSTEM.CONST>
0

>  <SCORE.SYSTEM.DIHEDRAL>
1.01189

>  <SCORE.SYSTEM.POLAR>
-4.35729

>  <SCORE.SYSTEM.REPUL>
0.202354

>  <SCORE.SYSTEM.VDW>
-2.90568

>  <SCORE.SYSTEM.norm>
-0.600102

>  <SCORE.heavy>
27

>  <SCORE.norm>
-1.74094

$$$$

  rDOCK(R)          3D
libRbt.so/2013.1/901 2013/11/27
 28 30  0  0  0  0  0  0  0  0999 V2000
   39.0710   13.5996   85.0370 C   0  0  0  0  0  0
   40.1156   12.9043   84.2554 C   0  0  0  0  0  0
   39.9995   11.6608   84.0860 O   0  0  0  0  0  0
   41.2943   13.5985   83.6822 C   0  0  0  0  0  0
   41.8629   13.1424   82.4870 C   0  0  0  0  0  0
   43.0068   13.7572   81.9274 C   0  0  0  0  0  0
   43.5361   14.9216   82.5615 C   0  0  0  0  0  0
   42.9867   15.3239   83.7984 C   0  0  0  0  0  0
   41.8877   14.6723   84.3494 C   0  0  0  0  0  0
   44.7322   15.6996   81.9918 C   0  0  0  0  0  0
   44.4515   17.2232   82.0047 C   0  0  0  0  0  0
   45.9773   15.4184   82.8639 C   0  0  0  0  0  0
   45.0155   15.3087   80.5202 C   0  0  0  0  0  0
   44.9777   13.8005   80.3065 C   0  0  0  0  0  0
   43.5846   13.1983   80.6175 C   0  0  0  0  0  0
   43.7715   11.6630   80.7107 C   0  0  0  0  0  0
   42.6046   13.5084   79.4627 C   0  0  0  0  0  0
   38.9748   14.9364   85.0907 C   0  0  0  0  0  0
   37.9347   15.6608   85.8621 C   0  0  0  0  0  0
   37.1237   15.0295   86.8245 C   0  0  0  0  0  0
   36.1507   15.7548   87.5193 C   0  0  0  0  0  0
   35.9634   17.1247   87.2672 C   0  0  0  0  0  0
   34.9328   17.9058   87.9939 C   0  0  0  0  0  0
   34.5469   19.0129   87.5324 O   0  0  0  0  0  0
   34.3811   17.4576   89.1936 O   0  0  0  0  0  0
   36.7546   17.7465   86.2866 C   0  0  0  0  0  0
   37.7270   17.0220   85.5923 C   0  0  0  0  0  0
   33.6850   17.9847   89.7046 H   0  0  0  0  0  0
  1  2  1  0  0  0
  2  3  2  0  0  0
  2  4  1  0  0  0
  4  5  2  0  0  0
  5  6  1  0  0  0
  6  7  2  0  0  0
  7  8  1  0  0  0
  8  9  2  0  0  0
  7 10  1  0  0  0
 10 11  1  0  0  0
 10 12  1  0  0  0
 10 13  1  0  0  0
 13 14  1  0  0  0
 14 15  1  0  0  0
 15 16  1  0  0  0
 15 17  1  0  0  0
  1 18  2  0  0  0
 18 19  1  0  0  0
 19 20  2  0  0  0
 20 21  1  0  0  0
 21 22  2  0  0  0
 22 23  1  0  0  0
 23 24  2  0  0  0
 23 25  1  0  0  0
 22 26  1  0  0  0
 26 27  2  0  0  0
  9  4  1  0  0  0
 27 19  1  0  0  0
 15  6  1  0  0  0
 25 28  1  0  0  0
M  END
>  <CHROM.0>
-23.12587682,59.29883555,-64.13312094,-55.19329720,-57.54565678,-176.98152964
-176.22930092,71.52150878

>  <CHROM.1>
-168.62687690,-148.48963685,13.42676749,-161.90583583,179.33063050,40.47849210
15.09373497,84.07253713,2.71450625,0.55053979,0.26350638

>  <RI>
3.35367e+07

>  <Rbt.Current_Directory>
/extra/banzai2/j5wagner/CELPP/2016_10_17_rdock_implementation/normal_run/tutorialVideo/tutorial_rdock_implementation/full_week_run/4-docking/1fcz/hiTanimoto_1fcz_docking

>  <Rbt.Executable>
rbdock ($Id: //depot/dev/client3/rdock/2013.1/src/exe/rbdock.cxx#4 $)

>  <Rbt.Library>
libRbt.so (2013.1, Build901 2013/11/27)

>  <Rbt.Parameter_File>
/home/j5wagner/env_00/source/rDock/rDock_2013.1_src//data/scripts/dock.prm

>  <Rbt.Receptor>
/extra/banzai2/j5wagner/CELPP/2016_10_17_rdock_implementation/normal_run/tutorialVideo/tutorial_rdock_implementation/full_week_run/4-docking/1fcz/hiTanimoto_1fcz_tech_prep/rDockGridGenInput.prm

>  <SCORE>
-46.8541

>  <SCORE.INTER>
-30.2397

>  <SCORE.INTER.CONST>
1

>  <SCORE.INTER.POLAR>
-1.70986

>  <SCORE.INTER.REPUL>
0

>  <SCORE.INTER.ROT>
4

>  <SCORE.INTER.VDW>
-33.8262

>  <SCORE.INTER.norm>
-1.11999

>  <SCORE.INTRA>
-1.70779

>  <SCORE.INTRA.DIHEDRAL>
-4.44173

>  <SCORE.INTRA.DIHEDRAL.0>
10.7811

>  <SCORE.INTRA.POLAR>
0

>  <SCORE.INTRA.POLAR.0>
0

>  <SCORE.INTRA.REPUL>
0

>  <SCORE.INTRA.REPUL.0>
0

>  <SCORE.INTRA.VDW>
0.513075

>  <SCORE.INTRA.VDW.0>
-0.812999

>  <SCORE.INTRA.norm>
-0.0632516

>  <SCORE.RESTR>
0

>  <SCORE.RESTR.CAVITY>
0

>  <SCORE.RESTR.norm>
0

>  <SCORE.SYSTEM>
-14.9065

>  <SCORE.SYSTEM.CONST>
0

>  <SCORE.SYSTEM.DIHEDRAL>
1.70675

>  <SCORE.SYSTEM.POLAR>
-4.18254

>  <SCORE.SYSTEM.REPUL>
0.202354

>  <SCORE.SYSTEM.VDW>
-2.55101

>  <SCORE.SYSTEM.norm>
-0.552093

>  <SCORE.heavy>
27

>  <SCORE.norm>
-1.73534

$$$$

  rDOCK(R)          3D
libRbt.so/2013.1/901 2013/11/27
 28 30  0  0  0  0  0  0  0  0999 V2000
   38.6806   13.9742   85.0958 C   0  0  0  0  0  0
   39.7053   13.2238   84.3393 C   0  0  0  0  0  0
   39.5369   11.9845   84.1829 O   0  0  0  0  0  0
   40.9221   13.8581   83.7765 C   0  0  0  0  0  0
   41.5109   13.3382   82.6178 C   0  0  0  0  0  0
   42.6901   13.8947   82.0706 C   0  0  0  0  0  0
   43.2376   15.0662   82.6758 C   0  0  0  0  0  0
   42.6650   15.5334   83.8789 C   0  0  0  0  0  0
   41.5298   14.9382   84.4202 C   0  0  0  0  0  0
   44.4745   15.7837   82.1140 C   0  0  0  0  0  0
   44.2427   17.3146   82.0600 C   0  0  0  0  0  0
   45.6834   15.4984   83.0341 C   0  0  0  0  0  0
   44.7885   15.3269   80.6678 C   0  0  0  0  0  0
   44.7084   13.8134   80.5108 C   0  0  0  0  0  0
   43.2881   13.2673   80.8015 C   0  0  0  0  0  0
   43.4227   11.7319   80.9590 C   0  0  0  0  0  0
   42.3533   13.5623   79.6060 C   0  0  0  0  0  0
   38.6820   15.3125   85.1871 C   0  0  0  0  0  0
   37.6644   16.0918   85.9346 C   0  0  0  0  0  0
   36.5788   15.4874   86.5970 C   0  0  0  0  0  0
   35.6410   16.2670   87.2811 C   0  0  0  0  0  0
   35.7638   17.6666   87.3169 C   0  0  0  0  0  0
   34.7746   18.5066   88.0355 C   0  0  0  0  0  0
   34.9439   19.7534   88.1014 O   0  0  0  0  0  0
   33.6578   17.9538   88.6615 O   0  0  0  0  0  0
   36.8319   18.2699   86.6319 C   0  0  0  0  0  0
   37.7693   17.4910   85.9483 C   0  0  0  0  0  0
   33.4860   16.9573   88.6903 H   0  0  0  0  0  0
  1  2  1  0  0  0
  2  3  2  0  0  0
  2  4  1  0  0  0
  4  5  2  0  0  0
  5  6  1  0  0  0
  6  7  2  0  0  0
  7  8  1  0  0  0
  8  9  2  0  0  0
  7 10  1  0  0  0
 10 11  1  0  0  0
 10 12  1  0  0  0
 10 13  1  0  0  0
 13 14  1  0  0  0
 14 15  1  0  0  0
 15 16  1  0  0  0
 15 17  1  0  0  0
  1 18  2  0  0  0
 18 19  1  0  0  0
 19 20  2  0  0  0
 20 21  1  0  0  0
 21 22  2  0  0  0
 22 23  1  0  0  0
 23 24  2  0  0  0
 23 25  1  0  0  0
 22 26  1  0  0  0
 26 27  2  0  0  0
  9  4  1  0  0  0
 27 19  1  0  0  0
 15  6  1  0  0  0
 25 28  1  0  0  0
M  END
>  <CHROM.0>
-15.41880624,58.93353792,-65.28158335,174.28134650,61.11358970,58.50107650
179.30719735,69.53816958

>  <CHROM.1>
-172.06061013,-150.36276140,-1.44486526,176.79479994,2.55592100,40.19750919
15.38048648,84.16902769,2.64515079,0.50709661,0.32015758

>  <RI>
3.35367e+07

>  <Rbt.Current_Directory>
/extra/banzai2/j5wagner/CELPP/2016_10_17_rdock_implementation/normal_run/tutorialVideo/tutorial_rdock_implementation/full_week_run/4-docking/1fcz/hiTanimoto_1fcz_docking

>  <Rbt.Executable>
rbdock ($Id: //depot/dev/client3/rdock/2013.1/src/exe/rbdock.cxx#4 $)

>  <Rbt.Library>
libRbt.so (2013.1, Build901 2013/11/27)

>  <Rbt.Parameter_File>
/home/j5wagner/env_00/source/rDock/rDock_2013.1_src//data/scripts/dock.prm

>  <Rbt.Receptor>
/extra/banzai2/j5wagner/CELPP/2016_10_17_rdock_implementation/normal_run/tutorialVideo/tutorial_rdock_implementation/full_week_run/4-docking/1fcz/hiTanimoto_1fcz_tech_prep/rDockGridGenInput.prm

>  <SCORE>
-46.0025

>  <SCORE.INTER>
-28.3107

>  <SCORE.INTER.CONST>
1

>  <SCORE.INTER.POLAR>
-1.14048

>  <SCORE.INTER.REPUL>
0

>  <SCORE.INTER.ROT>
4

>  <SCORE.INTER.VDW>
-33.8331

>  <SCORE.INTER.norm>
-1.04855

>  <SCORE.INTRA>
-2.72915

>  <SCORE.INTRA.DIHEDRAL>
-6.92856

>  <SCORE.INTRA.DIHEDRAL.0>
10.7811

>  <SCORE.INTRA.POLAR>
0

>  <SCORE.INTRA.POLAR.0>
0

>  <SCORE.INTRA.REPUL>
0

>  <SCORE.INTRA.REPUL.0>
0

>  <SCORE.INTRA.VDW>
0.73513

>  <SCORE.INTRA.VDW.0>
-0.812999

>  <SCORE.INTRA.norm>
-0.10108

>  <SCORE.RESTR>
0

>  <SCORE.RESTR.CAVITY>
0

>  <SCORE.RESTR.norm>
0

>  <SCORE.SYSTEM>
-14.9626

>  <SCORE.SYSTEM.CONST>
0

>  <SCORE.SYSTEM.DIHEDRAL>
1.11006

>  <SCORE.SYSTEM.POLAR>
-4.19444

>  <SCORE.SYSTEM.REPUL>
0.202354

>  <SCORE.SYSTEM.VDW>
-2.26831

>  <SCORE.SYSTEM.norm>
-0.55417

>  <SCORE.heavy>
27

>  <SCORE.norm>
-1.7038

$$$$

  rDOCK(R)          3D
libRbt.so/2013.1/901 2013/11/27
 28 30  0  0  0  0  0  0  0  0999 V2000
   38.6852   13.9127   85.1824 C   0  0  0  0  0  0
   39.7162   13.1534   84.4436 C   0  0  0  0  0  0
   39.5779   11.9042   84.3491 O   0  0  0  0  0  0
   40.9062   13.7909   83.8294 C   0  0  0  0  0  0
   41.3840   13.3381   82.5939 C   0  0  0  0  0  0
   42.5350   13.8981   81.9928 C   0  0  0  0  0  0
   43.1682   15.0073   82.6309 C   0  0  0  0  0  0
   42.7082   15.4039   83.9056 C   0  0  0  0  0  0
   41.5992   14.8046   84.4946 C   0  0  0  0  0  0
   44.3810   15.7272   82.0217 C   0  0  0  0  0  0
   44.1983   17.2641   82.0918 C   0  0  0  0  0  0
   45.6480   15.3425   82.8195 C   0  0  0  0  0  0
   44.5647   15.3657   80.5269 C   0  0  0  0  0  0
   44.4207   13.8701   80.2734 C   0  0  0  0  0  0
   43.0097   13.3457   80.6395 C   0  0  0  0  0  0
   43.1034   11.7997   80.6799 C   0  0  0  0  0  0
   41.9945   13.7518   79.5465 C   0  0  0  0  0  0
   38.6960   15.2510   85.2731 C   0  0  0  0  0  0
   37.6726   16.0392   86.0030 C   0  0  0  0  0  0
   36.6158   15.4398   86.7147 C   0  0  0  0  0  0
   35.6707   16.2272   87.3797 C   0  0  0  0  0  0
   35.7573   17.6296   87.3468 C   0  0  0  0  0  0
   34.7600   18.4777   88.0444 C   0  0  0  0  0  0
   34.8771   19.7319   88.0161 O   0  0  0  0  0  0
   33.6927   17.9259   88.7521 O   0  0  0  0  0  0
   36.7964   18.2263   86.6128 C   0  0  0  0  0  0
   37.7409   17.4396   85.9484 C   0  0  0  0  0  0
   33.5787   16.9285   88.8774 H   0  0  0  0  0  0
  1  2  1  0  0  0
  2  3  2  0  0  0
  2  4  1  0  0  0
  4  5  2  0  0  0
  5  6  1  0  0  0
  6  7  2  0  0  0
  7  8  1  0  0  0
  8  9  2  0  0  0
  7 10  1  0  0  0
 10 11  1  0  0  0
 10 12  1  0  0  0
 10 13  1  0  0  0
 13 14  1  0  0  0
 14 15  1  0  0  0
 15 16  1  0  0  0
 15 17  1  0  0  0
  1 18  2  0  0  0
 18 19  1  0  0  0
 19 20  2  0  0  0
 20 21  1  0  0  0
 21 22  2  0  0  0
 22 23  1  0  0  0
 23 24  2  0  0  0
 23 25  1  0  0  0
 22 26  1  0  0  0
 26 27  2  0  0  0
  9  4  1  0  0  0
 27 19  1  0  0  0
 15  6  1  0  0  0
 25 28  1  0  0  0
M  END
>  <CHROM.0>
28.32538712,55.31701121,-63.25586569,172.40127939,61.63439725,60.69447152
-176.28392655,68.59506375

>  <CHROM.1>
-175.93516537,-142.06160596,2.47714673,178.78033582,4.15650372,40.12682059
15.35046177,84.15317562,2.65286290,0.53811092,0.30112764

>  <RI>
3.35367e+07

>  <Rbt.Current_Directory>
/extra/banzai2/j5wagner/CELPP/2016_10_17_rdock_implementation/normal_run/tutorialVideo/tutorial_rdock_implementation/full_week_run/4-docking/1fcz/hiTanimoto_1fcz_docking

>  <Rbt.Executable>
rbdock ($Id: //depot/dev/client3/rdock/2013.1/src/exe/rbdock.cxx#4 $)

>  <Rbt.Library>
libRbt.so (2013.1, Build901 2013/11/27)

>  <Rbt.Parameter_File>
/home/j5wagner/env_00/source/rDock/rDock_2013.1_src//data/scripts/dock.prm

>  <Rbt.Receptor>
/extra/banzai2/j5wagner/CELPP/2016_10_17_rdock_implementation/normal_run/tutorialVideo/tutorial_rdock_implementation/full_week_run/4-docking/1fcz/hiTanimoto_1fcz_tech_prep/rDockGridGenInput.prm

>  <SCORE>
-45.4011

>  <SCORE.INTER>
-28.6348

>  <SCORE.INTER.CONST>
1

>  <SCORE.INTER.POLAR>
-1.09488

>  <SCORE.INTER.REPUL>
0

>  <SCORE.INTER.ROT>
4

>  <SCORE.INTER.VDW>
-34.3122

>  <SCORE.INTER.norm>
-1.06055

>  <SCORE.INTRA>
-2.18164

>  <SCORE.INTRA.DIHEDRAL>
-5.2622

>  <SCORE.INTRA.DIHEDRAL.0>
10.7811

>  <SCORE.INTRA.POLAR>
0

>  <SCORE.INTRA.POLAR.0>
0

>  <SCORE.INTRA.REPUL>
0

>  <SCORE.INTRA.REPUL.0>
0

>  <SCORE.INTRA.VDW>
0.449466

>  <SCORE.INTRA.VDW.0>
-0.812999

>  <SCORE.INTRA.norm>
-0.0808013

>  <SCORE.RESTR>
0

>  <SCORE.RESTR.CAVITY>
0

>  <SCORE.RESTR.norm>
0

>  <SCORE.SYSTEM>
-14.5846

>  <SCORE.SYSTEM.CONST>
0

>  <SCORE.SYSTEM.DIHEDRAL>
1.88963

>  <SCORE.SYSTEM.POLAR>
-4.17727

>  <SCORE.SYSTEM.REPUL>
0.202354

>  <SCORE.SYSTEM.VDW>
-2.3385

>  <SCORE.SYSTEM.norm>
-0.540172

>  <SCORE.heavy>
27

>  <SCORE.norm>
-1.68152

$$$$

  rDOCK(R)          3D
libRbt.so/2013.1/901 2013/11/27
 28 30  0  0  0  0  0  0  0  0999 V2000
   39.2879   14.4249   84.7636 C   0  0  0  0  0  0
   40.2867   13.5105   84.1708 C   0  0  0  0  0  0
   40.0649   12.2712   84.2314 O   0  0  0  0  0  0
   41.5372   13.9839   83.5290 C   0  0  0  0  0  0
   42.0299   13.3341   82.3912 C   0  0  0  0  0  0
   43.2360   13.7351   81.7714 C   0  0  0  0  0  0
   43.9157   14.8840   82.2779 C   0  0  0  0  0  0
   43.4356   15.4827   83.4631 C   0  0  0  0  0  0
   42.2693   15.0387   84.0783 C   0  0  0  0  0  0
   45.1940   15.4382   81.6307 C   0  0  0  0  0  0
   45.1086   16.9777   81.4790 C   0  0  0  0  0  0
   46.4033   15.0960   82.5309 C   0  0  0  0  0  0
   45.4089   14.8593   80.2103 C   0  0  0  0  0  0
   45.1781   13.3540   80.1600 C   0  0  0  0  0  0
   43.7236   12.9704   80.5306 C   0  0  0  0  0  0
   43.7158   11.4427   80.7889 C   0  0  0  0  0  0
   42.7778   13.2773   79.3468 C   0  0  0  0  0  0
   38.5492   14.0964   85.8341 C   0  0  0  0  0  0
   37.5438   14.9951   86.4529 C   0  0  0  0  0  0
   36.7978   14.6328   87.5909 C   0  0  0  0  0  0
   35.8551   15.5126   88.1318 C   0  0  0  0  0  0
   35.6335   16.7716   87.5476 C   0  0  0  0  0  0
   34.6342   17.7137   88.1082 C   0  0  0  0  0  0
   34.4371   18.8236   87.5456 O   0  0  0  0  0  0
   33.9076   17.4146   89.2603 O   0  0  0  0  0  0
   36.3587   17.1200   86.3957 C   0  0  0  0  0  0
   37.3010   16.2411   85.8552 C   0  0  0  0  0  0
   33.3949   18.1155   89.7793 H   0  0  0  0  0  0
  1  2  1  0  0  0
  2  3  2  0  0  0
  2  4  1  0  0  0
  4  5  2  0  0  0
  5  6  1  0  0  0
  6  7  2  0  0  0
  7  8  1  0  0  0
  8  9  2  0  0  0
  7 10  1  0  0  0
 10 11  1  0  0  0
 10 12  1  0  0  0
 10 13  1  0  0  0
 13 14  1  0  0  0
 14 15  1  0  0  0
 15 16  1  0  0  0
 15 17  1  0  0  0
  1 18  2  0  0  0
 18 19  1  0  0  0
 19 20  2  0  0  0
 20 21  1  0  0  0
 21 22  2  0  0  0
 22 23  1  0  0  0
 23 24  2  0  0  0
 23 25  1  0  0  0
 22 26  1  0  0  0
 26 27  2  0  0  0
  9  4  1  0  0  0
 27 19  1  0  0  0
 15  6  1  0  0  0
 25 28  1  0  0  0
M  END
>  <CHROM.0>
14.21688741,-61.43008506,-65.32363536,69.68482095,-56.85938944,-58.32290043
-171.79877816,69.39697684

>  <CHROM.1>
31.93433768,-142.79662924,-178.89601652,-178.46270089,164.93269679,40.52410084
14.96011605,84.07776911,2.74025549,0.54651909,0.29793101

>  <RI>
3.35367e+07

>  <Rbt.Current_Directory>
/extra/banzai2/j5wagner/CELPP/2016_10_17_rdock_implementation/normal_run/tutorialVideo/tutorial_rdock_implementation/full_week_run/4-docking/1fcz/hiTanimoto_1fcz_docking

>  <Rbt.Executable>
rbdock ($Id: //depot/dev/client3/rdock/2013.1/src/exe/rbdock.cxx#4 $)

>  <Rbt.Library>
libRbt.so (2013.1, Build901 2013/11/27)

>  <Rbt.Parameter_File>
/home/j5wagner/env_00/source/rDock/rDock_2013.1_src//data/scripts/dock.prm

>  <Rbt.Receptor>
/extra/banzai2/j5wagner/CELPP/2016_10_17_rdock_implementation/normal_run/tutorialVideo/tutorial_rdock_implementation/full_week_run/4-docking/1fcz/hiTanimoto_1fcz_tech_prep/rDockGridGenInput.prm

>  <SCORE>
-44.7829

>  <SCORE.INTER>
-28.8149

>  <SCORE.INTER.CONST>
1

>  <SCORE.INTER.POLAR>
-2.06663

>  <SCORE.INTER.REPUL>
0.0204069

>  <SCORE.INTER.ROT>
4

>  <SCORE.INTER.VDW>
-31.2904

>  <SCORE.INTER.norm>
-1.06722

>  <SCORE.INTRA>
0.237262

>  <SCORE.INTRA.DIHEDRAL>
-0.915371

>  <SCORE.INTRA.DIHEDRAL.0>
10.7811

>  <SCORE.INTRA.POLAR>
0

>  <SCORE.INTRA.POLAR.0>
0

>  <SCORE.INTRA.REPUL>
0

>  <SCORE.INTRA.REPUL.0>
0

>  <SCORE.INTRA.VDW>
0.694948

>  <SCORE.INTRA.VDW.0>
-0.812999

>  <SCORE.INTRA.norm>
0.0087875

>  <SCORE.RESTR>
0

>  <SCORE.RESTR.CAVITY>
0

>  <SCORE.RESTR.norm>
0

>  <SCORE.SYSTEM>
-16.2053

>  <SCORE.SYSTEM.CONST>
0

>  <SCORE.SYSTEM.DIHEDRAL>
1.66763

>  <SCORE.SYSTEM.POLAR>
-4.44952

>  <SCORE.SYSTEM.REPUL>
0.202354

>  <SCORE.SYSTEM.VDW>
-2.92257

>  <SCORE.SYSTEM.norm>
-0.600198

>  <SCORE.heavy>
27

>  <SCORE.norm>
-1.65863

$$$$

  rDOCK(R)          3D
libRbt.so/2013.1/901 2013/11/27
 28 30  0  0  0  0  0  0  0  0999 V2000
   39.2349   14.5952   85.1748 C   0  0  0  0  0  0
   40.0715   13.5135   84.6133 C   0  0  0  0  0  0
   39.6408   12.3314   84.6890 O   0  0  0  0  0  0
   41.3935   13.7555   83.9860 C   0  0  0  0  0  0
   41.9337   15.0468   83.9666 C   0  0  0  0  0  0
   43.1753   15.3227   83.3487 C   0  0  0  0  0  0
   43.9260   14.2354   82.8076 C   0  0  0  0  0  0
   43.3329   12.9544   82.7811 C   0  0  0  0  0  0
   42.0884   12.7199   83.3575 C   0  0  0  0  0  0
   45.3150   14.4241   82.1789 C   0  0  0  0  0  0
   46.3010   13.3457   82.6941 C   0  0  0  0  0  0
   45.1950   14.2917   80.6434 C   0  0  0  0  0  0
   45.9235   15.7999   82.5472 C   0  0  0  0  0  0
   44.9151   16.9333   82.4041 C   0  0  0  0  0  0
   43.7044   16.7656   83.3559 C   0  0  0  0  0  0
   42.6135   17.7529   82.8704 C   0  0  0  0  0  0
   44.1093   17.1456   84.7988 C   0  0  0  0  0  0
   38.1872   14.3587   85.9785 C   0  0  0  0  0  0
   37.3336   15.4238   86.5602 C   0  0  0  0  0  0
   37.5392   16.7918   86.2973 C   0  0  0  0  0  0
   36.7118   17.7586   86.8773 C   0  0  0  0  0  0
   35.6635   17.3823   87.7344 C   0  0  0  0  0  0
   34.7802   18.3969   88.3595 C   0  0  0  0  0  0
   33.6845   18.0421   88.8703 O   0  0  0  0  0  0
   35.1193   19.7493   88.3875 O   0  0  0  0  0  0
   35.4775   16.0187   88.0176 C   0  0  0  0  0  0
   36.3040   15.0524   87.4381 C   0  0  0  0  0  0
   34.5285   20.4511   88.8141 H   0  0  0  0  0  0
  1  2  1  0  0  0
  2  3  2  0  0  0
  2  4  1  0  0  0
  4  5  2  0  0  0
  5  6  1  0  0  0
  6  7  2  0  0  0
  7  8  1  0  0  0
  8  9  2  0  0  0
  7 10  1  0  0  0
 10 11  1  0  0  0
 10 12  1  0  0  0
 10 13  1  0  0  0
 13 14  1  0  0  0
 14 15  1  0  0  0
 15 16  1  0  0  0
 15 17  1  0  0  0
  1 18  2  0  0  0
 18 19  1  0  0  0
 19 20  2  0  0  0
 20 21  1  0  0  0
 21 22  2  0  0  0
 22 23  1  0  0  0
 23 24  2  0  0  0
 23 25  1  0  0  0
 22 26  1  0  0  0
 26 27  2  0  0  0
  9  4  1  0  0  0
 27 19  1  0  0  0
 15  6  1  0  0  0
 25 28  1  0  0  0
M  END
>  <CHROM.0>
-159.49676984,59.76867392,-64.24358706,173.70669604,-175.40456800,-59.03806835
-179.39790296,70.32640946

>  <CHROM.1>
13.40325883,3.27816740,1.09402837,164.12458935,-179.70934029,40.49745450
15.60272032,84.85631450,2.82058362,0.48403790,0.16264342

>  <RI>
3.35367e+07

>  <Rbt.Current_Directory>
/extra/banzai2/j5wagner/CELPP/2016_10_17_rdock_implementation/normal_run/tutorialVideo/tutorial_rdock_implementation/full_week_run/4-docking/1fcz/hiTanimoto_1fcz_docking

>  <Rbt.Executable>
rbdock ($Id: //depot/dev/client3/rdock/2013.1/src/exe/rbdock.cxx#4 $)

>  <Rbt.Library>
libRbt.so (2013.1, Build901 2013/11/27)

>  <Rbt.Parameter_File>
/home/j5wagner/env_00/source/rDock/rDock_2013.1_src//data/scripts/dock.prm

>  <Rbt.Receptor>
/extra/banzai2/j5wagner/CELPP/2016_10_17_rdock_implementation/normal_run/tutorialVideo/tutorial_rdock_implementation/full_week_run/4-docking/1fcz/hiTanimoto_1fcz_tech_prep/rDockGridGenInput.prm

>  <SCORE>
-43.4917

>  <SCORE.INTER>
-21.6717

>  <SCORE.INTER.CONST>
1

>  <SCORE.INTER.POLAR>
-1.01641

>  <SCORE.INTER.REPUL>
0

>  <SCORE.INTER.ROT>
4

>  <SCORE.INTER.VDW>
-27.6158

>  <SCORE.INTER.norm>
-0.802654

>  <SCORE.INTRA>
-3.69317

>  <SCORE.INTRA.DIHEDRAL>
-9.0009

>  <SCORE.INTRA.DIHEDRAL.0>
10.7811

>  <SCORE.INTRA.POLAR>
0

>  <SCORE.INTRA.POLAR.0>
0

>  <SCORE.INTRA.REPUL>
0

>  <SCORE.INTRA.REPUL.0>
0

>  <SCORE.INTRA.VDW>
0.807285

>  <SCORE.INTRA.VDW.0>
-0.812999

>  <SCORE.INTRA.norm>
-0.136784

>  <SCORE.RESTR>
0

>  <SCORE.RESTR.CAVITY>
0

>  <SCORE.RESTR.norm>
0

>  <SCORE.SYSTEM>
-18.1268

>  <SCORE.SYSTEM.CONST>
0

>  <SCORE.SYSTEM.DIHEDRAL>
1.43273

>  <SCORE.SYSTEM.POLAR>
-4.74144

>  <SCORE.SYSTEM.VDW>
-2.72231

>  <SCORE.SYSTEM.norm>
-0.671364

>  <SCORE.heavy>
27

>  <SCORE.norm>
-1.6108

$$$$

  rDOCK(R)          3D
libRbt.so/2013.1/901 2013/11/27
 28 30  0  0  0  0  0  0  0  0999 V2000
   38.5458   13.8257   85.2704 C   0  0  0  0  0  0
   39.5682   13.0583   84.5281 C   0  0  0  0  0  0
   39.4238   11.8093   84.4406 O   0  0  0  0  0  0
   40.7567   13.6876   83.9025 C   0  0  0  0  0  0
   41.2518   13.1965   82.6886 C   0  0  0  0  0  0
   42.4020   13.7483   82.0786 C   0  0  0  0  0  0
   43.0160   14.8872   82.6823 C   0  0  0  0  0  0
   42.5390   15.3238   83.9374 C   0  0  0  0  0  0
   41.4313   14.7327   84.5372 C   0  0  0  0  0  0
   44.2263   15.5993   82.0589 C   0  0  0  0  0  0
   44.0251   17.1354   82.0720 C   0  0  0  0  0  0
   45.4898   15.2586   82.8819 C   0  0  0  0  0  0
   44.4288   15.1865   80.5799 C   0  0  0  0  0  0
   44.3047   13.6812   80.3791 C   0  0  0  0  0  0
   42.8964   13.1535   80.7506 C   0  0  0  0  0  0
   43.0077   11.6111   80.8474 C   0  0  0  0  0  0
   41.8873   13.5078   79.6342 C   0  0  0  0  0  0
   38.5340   15.1664   85.3122 C   0  0  0  0  0  0
   37.5183   15.9625   86.0443 C   0  0  0  0  0  0
   36.4948   15.3709   86.8093 C   0  0  0  0  0  0
   35.5555   16.1652   87.4742 C   0  0  0  0  0  0
   35.6146   17.5668   87.3882 C   0  0  0  0  0  0
   34.6229   18.4220   88.0851 C   0  0  0  0  0  0
   33.6860   17.8885   88.7368 O   0  0  0  0  0  0
   34.6850   19.8140   88.0295 O   0  0  0  0  0  0
   36.6197   18.1545   86.6017 C   0  0  0  0  0  0
   37.5586   17.3610   85.9373 C   0  0  0  0  0  0
   35.4177   20.3082   87.5372 H   0  0  0  0  0  0
  1  2  1  0  0  0
  2  3  2  0  0  0
  2  4  1  0  0  0
  4  5  2  0  0  0
  5  6  1  0  0  0
  6  7  2  0  0  0
  7  8  1  0  0  0
  8  9  2  0  0  0
  7 10  1  0  0  0
 10 11  1  0  0  0
 10 12  1  0  0  0
 10 13  1  0  0  0
 13 14  1  0  0  0
 14 15  1  0  0  0
 15 16  1  0  0  0
 15 17  1  0  0  0
  1 18  2  0  0  0
 18 19  1  0  0  0
 19 20  2  0  0  0
 20 21  1  0  0  0
 21 22  2  0  0  0
 22 23  1  0  0  0
 23 24  2  0  0  0
 23 25  1  0  0  0
 22 26  1  0  0  0
 26 27  2  0  0  0
  9  4  1  0  0  0
 27 19  1  0  0  0
 15  6  1  0  0  0
 25 28  1  0  0  0
M  END
>  <CHROM.0>
8.39111032,-58.88443185,-64.27927956,-55.49214581,63.79022927,60.67245477
179.59456734,158.46229266

>  <CHROM.1>
-173.32512919,-144.28575546,2.46280712,-2.01939332,-1.75971522,39.99281967
15.25723120,84.20730130,2.65183625,0.54375130,0.27159698

>  <RI>
3.35367e+07

>  <Rbt.Current_Directory>
/extra/banzai2/j5wagner/CELPP/2016_10_17_rdock_implementation/normal_run/tutorialVideo/tutorial_rdock_implementation/full_week_run/4-docking/1fcz/hiTanimoto_1fcz_docking

>  <Rbt.Executable>
rbdock ($Id: //depot/dev/client3/rdock/2013.1/src/exe/rbdock.cxx#4 $)

>  <Rbt.Library>
libRbt.so (2013.1, Build901 2013/11/27)

>  <Rbt.Parameter_File>
/home/j5wagner/env_00/source/rDock/rDock_2013.1_src//data/scripts/dock.prm

>  <Rbt.Receptor>
/extra/banzai2/j5wagner/CELPP/2016_10_17_rdock_implementation/normal_run/tutorialVideo/tutorial_rdock_implementation/full_week_run/4-docking/1fcz/hiTanimoto_1fcz_tech_prep/rDockGridGenInput.prm

>  <SCORE>
-42.4315

>  <SCORE.INTER>
-31.5552

>  <SCORE.INTER.CONST>
1

>  <SCORE.INTER.POLAR>
-1.9025

>  <SCORE.INTER.REPUL>
0

>  <SCORE.INTER.ROT>
4

>  <SCORE.INTER.VDW>
-34.4867

>  <SCORE.INTER.norm>
-1.16871

>  <SCORE.INTRA>
-2.39083

>  <SCORE.INTRA.DIHEDRAL>
-5.76189

>  <SCORE.INTRA.DIHEDRAL.0>
10.7811

>  <SCORE.INTRA.POLAR>
0

>  <SCORE.INTRA.POLAR.0>
0

>  <SCORE.INTRA.REPUL>
0

>  <SCORE.INTRA.REPUL.0>
0

>  <SCORE.INTRA.VDW>
0.49011

>  <SCORE.INTRA.VDW.0>
-0.812999

>  <SCORE.INTRA.norm>
-0.0885494

>  <SCORE.RESTR>
0

>  <SCORE.RESTR.CAVITY>
0

>  <SCORE.RESTR.norm>
0

>  <SCORE.SYSTEM>
-8.4855

>  <SCORE.SYSTEM.CONST>
0

>  <SCORE.SYSTEM.DIHEDRAL>
2.3892

>  <SCORE.SYSTEM.POLAR>
-2.90913

>  <SCORE.SYSTEM.REPUL>
0.202354

>  <SCORE.SYSTEM.VDW>
-0.800816

>  <SCORE.SYSTEM.norm>
-0.314278

>  <SCORE.heavy>
27

>  <SCORE.norm>
-1.57154

$$$$

  rDOCK(R)          3D
libRbt.so/2013.1/901 2013/11/27
 28 30  0  0  0  0  0  0  0  0999 V2000
   39.8381   15.1627   85.4820 C   0  0  0  0  0  0
   40.9893   14.2789   85.2011 C   0  0  0  0  0  0
   41.5553   13.7154   86.1761 O   0  0  0  0  0  0
   41.5140   14.0430   83.8340 C   0  0  0  0  0  0
   42.8627   14.2875   83.5497 C   0  0  0  0  0  0
   43.3920   14.1065   82.2509 C   0  0  0  0  0  0
   42.5398   13.5820   81.2326 C   0  0  0  0  0  0
   41.1700   13.4045   81.5256 C   0  0  0  0  0  0
   40.6665   13.6335   82.8023 C   0  0  0  0  0  0
   43.0397   13.2853   79.8105 C   0  0  0  0  0  0
   42.5464   11.8959   79.3347 C   0  0  0  0  0  0
   42.4888   14.3623   78.8481 C   0  0  0  0  0  0
   44.5870   13.2574   79.7463 C   0  0  0  0  0  0
   45.2164   14.4256   80.4951 C   0  0  0  0  0  0
   44.8801   14.4032   82.0072 C   0  0  0  0  0  0
   45.2620   15.7949   82.5711 C   0  0  0  0  0  0
   45.7310   13.3288   82.7224 C   0  0  0  0  0  0
   39.0164   14.9738   86.5253 C   0  0  0  0  0  0
   37.8572   15.8469   86.8343 C   0  0  0  0  0  0
   37.6684   17.1035   86.2278 C   0  0  0  0  0  0
   36.5632   17.8934   86.5596 C   0  0  0  0  0  0
   35.6239   17.4485   87.5058 C   0  0  0  0  0  0
   34.4488   18.2771   87.8703 C   0  0  0  0  0  0
   33.5999   17.8323   88.6882 O   0  0  0  0  0  0
   34.2417   19.5414   87.3195 O   0  0  0  0  0  0
   35.8290   16.2067   88.1305 C   0  0  0  0  0  0
   36.9333   15.4172   87.7990 C   0  0  0  0  0  0
   34.8718   19.9513   86.6424 H   0  0  0  0  0  0
  1  2  1  0  0  0
  2  3  2  0  0  0
  2  4  1  0  0  0
  4  5  2  0  0  0
  5  6  1  0  0  0
  6  7  2  0  0  0
  7  8  1  0  0  0
  8  9  2  0  0  0
  7 10  1  0  0  0
 10 11  1  0  0  0
 10 12  1  0  0  0
 10 13  1  0  0  0
 13 14  1  0  0  0
 14 15  1  0  0  0
 15 16  1  0  0  0
 15 17  1  0  0  0
  1 18  2  0  0  0
 18 19  1  0  0  0
 19 20  2  0  0  0
 20 21  1  0  0  0
 21 22  2  0  0  0
 22 23  1  0  0  0
 23 24  2  0  0  0
 23 25  1  0  0  0
 22 26  1  0  0  0
 26 27  2  0  0  0
  9  4  1  0  0  0
 27 19  1  0  0  0
 15  6  1  0  0  0
 25 28  1  0  0  0
M  END
>  <CHROM.0>
-55.67467559,59.26727798,-64.76526967,65.84748047,-57.71831609,-59.79290967
179.35100905,70.56718974

>  <CHROM.1>
-29.91460234,124.54436610,-13.27360461,177.60516548,0.59403092,40.36438613
15.12104481,84.10789624,-2.47770775,0.35560925,-1.66924794

>  <RI>
3.35367e+07

>  <Rbt.Current_Directory>
/extra/banzai2/j5wagner/CELPP/2016_10_17_rdock_implementation/normal_run/tutorialVideo/tutorial_rdock_implementation/full_week_run/4-docking/1fcz/hiTanimoto_1fcz_docking

>  <Rbt.Executable>
rbdock ($Id: //depot/dev/client3/rdock/2013.1/src/exe/rbdock.cxx#4 $)

>  <Rbt.Library>
libRbt.so (2013.1, Build901 2013/11/27)

>  <Rbt.Parameter_File>
/home/j5wagner/env_00/source/rDock/rDock_2013.1_src//data/scripts/dock.prm

>  <Rbt.Receptor>
/extra/banzai2/j5wagner/CELPP/2016_10_17_rdock_implementation/normal_run/tutorialVideo/tutorial_rdock_implementation/full_week_run/4-docking/1fcz/hiTanimoto_1fcz_tech_prep/rDockGridGenInput.prm

>  <SCORE>
-41.8613

>  <SCORE.INTER>
-26.219

>  <SCORE.INTER.CONST>
1

>  <SCORE.INTER.POLAR>
-1.86956

>  <SCORE.INTER.REPUL>
0

>  <SCORE.INTER.ROT>
4

>  <SCORE.INTER.VDW>
-29.2625

>  <SCORE.INTER.norm>
-0.971073

>  <SCORE.INTRA>
0.651077

>  <SCORE.INTRA.DIHEDRAL>
0.898464

>  <SCORE.INTRA.DIHEDRAL.0>
10.7811

>  <SCORE.INTRA.POLAR>
0

>  <SCORE.INTRA.POLAR.0>
0

>  <SCORE.INTRA.REPUL>
0

>  <SCORE.INTRA.REPUL.0>
0

>  <SCORE.INTRA.VDW>
0.201845

>  <SCORE.INTRA.VDW.0>
-0.812999

>  <SCORE.INTRA.norm>
0.024114

>  <SCORE.RESTR>
0.000234337

>  <SCORE.RESTR.CAVITY>
0.000234337

>  <SCORE.RESTR.norm>
8.67915e-06

>  <SCORE.SYSTEM>
-16.2936

>  <SCORE.SYSTEM.CONST>
0

>  <SCORE.SYSTEM.DIHEDRAL>
4.13598

>  <SCORE.SYSTEM.POLAR>
-4.36701

>  <SCORE.SYSTEM.REPUL>
0.0856809

>  <SCORE.SYSTEM.VDW>
-3.94218

>  <SCORE.SYSTEM.norm>
-0.603467

>  <SCORE.heavy>
27

>  <SCORE.norm>
-1.55042

$$$$

  rDOCK(R)          3D
libRbt.so/2013.1/901 2013/11/27
 28 30  0  0  0  0  0  0  0  0999 V2000
   40.9191   16.3101   85.8231 C   0  0  0  0  0  0
   42.2059   16.0043   85.1630 C   0  0  0  0  0  0
   43.2493   16.5436   85.6203 O   0  0  0  0  0  0
   42.3187   15.1117   83.9838 C   0  0  0  0  0  0
   43.5298   15.0208   83.2876 C   0  0  0  0  0  0
   43.6665   14.2068   82.1394 C   0  0  0  0  0  0
   42.5597   13.3988   81.7387 C   0  0  0  0  0  0
   41.3308   13.5556   82.4162 C   0  0  0  0  0  0
   41.2125   14.3986   83.5168 C   0  0  0  0  0  0
   42.6331   12.4311   80.5477 C   0  0  0  0  0  0
   42.0263   11.0554   80.9210 C   0  0  0  0  0  0
   41.8290   13.0230   79.3676 C   0  0  0  0  0  0
   44.0977   12.1722   80.1153 C   0  0  0  0  0  0
   44.9132   13.4572   80.0425 C   0  0  0  0  0  0
   45.0226   14.1619   81.4178 C   0  0  0  0  0  0
   45.5479   15.5940   81.1462 C   0  0  0  0  0  0
   46.0437   13.4213   82.3117 C   0  0  0  0  0  0
   39.7712   15.7002   85.4919 C   0  0  0  0  0  0
   38.4669   15.9831   86.1402 C   0  0  0  0  0  0
   37.3173   15.2039   85.9084 C   0  0  0  0  0  0
   36.1083   15.5170   86.5375 C   0  0  0  0  0  0
   36.0188   16.6159   87.4091 C   0  0  0  0  0  0
   34.7422   16.9621   88.0806 C   0  0  0  0  0  0
   33.6962   16.3157   87.8060 O   0  0  0  0  0  0
   34.6569   18.0021   89.0057 O   0  0  0  0  0  0
   37.1599   17.4089   87.6174 C   0  0  0  0  0  0
   38.3681   17.0961   86.9890 C   0  0  0  0  0  0
   33.8096   18.2075   89.5189 H   0  0  0  0  0  0
  1  2  1  0  0  0
  2  3  2  0  0  0
  2  4  1  0  0  0
  4  5  2  0  0  0
  5  6  1  0  0  0
  6  7  2  0  0  0
  7  8  1  0  0  0
  8  9  2  0  0  0
  7 10  1  0  0  0
 10 11  1  0  0  0
 10 12  1  0  0  0
 10 13  1  0  0  0
 13 14  1  0  0  0
 14 15  1  0  0  0
 15 16  1  0  0  0
 15 17  1  0  0  0
  1 18  2  0  0  0
 18 19  1  0  0  0
 19 20  2  0  0  0
 20 21  1  0  0  0
 21 22  2  0  0  0
 22 23  1  0  0  0
 23 24  2  0  0  0
 23 25  1  0  0  0
 22 26  1  0  0  0
 26 27  2  0  0  0
  9  4  1  0  0  0
 27 19  1  0  0  0
 15  6  1  0  0  0
 25 28  1  0  0  0
M  END
>  <CHROM.0>
-159.43792924,-62.47938936,-64.33216414,-55.20389820,63.47737147,-176.26156961
-172.82290620,69.84287396

>  <CHROM.1>
-173.95768824,170.49720820,-170.89067406,-4.48079274,-175.59047508,40.70067786
14.99509921,84.10085044,-2.43798366,-0.20864954,-2.28534796

>  <RI>
3.35367e+07

>  <Rbt.Current_Directory>
/extra/banzai2/j5wagner/CELPP/2016_10_17_rdock_implementation/normal_run/tutorialVideo/tutorial_rdock_implementation/full_week_run/4-docking/1fcz/hiTanimoto_1fcz_docking

>  <Rbt.Executable>
rbdock ($Id: //depot/dev/client3/rdock/2013.1/src/exe/rbdock.cxx#4 $)

>  <Rbt.Library>
libRbt.so (2013.1, Build901 2013/11/27)

>  <Rbt.Parameter_File>
/home/j5wagner/env_00/source/rDock/rDock_2013.1_src//data/scripts/dock.prm

>  <Rbt.Receptor>
/extra/banzai2/j5wagner/CELPP/2016_10_17_rdock_implementation/normal_run/tutorialVideo/tutorial_rdock_implementation/full_week_run/4-docking/1fcz/hiTanimoto_1fcz_tech_prep/rDockGridGenInput.prm

>  <SCORE>
-41.2262

>  <SCORE.INTER>
-20.384

>  <SCORE.INTER.CONST>
1

>  <SCORE.INTER.POLAR>
-0.906231

>  <SCORE.INTER.REPUL>
0.187402

>  <SCORE.INTER.ROT>
4

>  <SCORE.INTER.VDW>
-27.6398

>  <SCORE.INTER.norm>
-0.754961

>  <SCORE.INTRA>
-2.58362

>  <SCORE.INTRA.DIHEDRAL>
-9.7543

>  <SCORE.INTRA.DIHEDRAL.0>
10.7811

>  <SCORE.INTRA.POLAR>
0

>  <SCORE.INTRA.POLAR.0>
0

>  <SCORE.INTRA.REPUL>
0

>  <SCORE.INTRA.REPUL.0>
0

>  <SCORE.INTRA.VDW>
2.29353

>  <SCORE.INTRA.VDW.0>
-0.812999

>  <SCORE.INTRA.norm>
-0.0956895

>  <SCORE.RESTR>
0

>  <SCORE.RESTR.CAVITY>
0

>  <SCORE.RESTR.norm>
0

>  <SCORE.SYSTEM>
-18.2586

>  <SCORE.SYSTEM.CONST>
0

>  <SCORE.SYSTEM.DIHEDRAL>
1.58741

>  <SCORE.SYSTEM.POLAR>
-4.79789

>  <SCORE.SYSTEM.VDW>
-2.73952

>  <SCORE.SYSTEM.norm>
-0.676246

>  <SCORE.heavy>
27

>  <SCORE.norm>
-1.5269

$$$$

  rDOCK(R)          3D
libRbt.so/2013.1/901 2013/11/27
 28 30  0  0  0  0  0  0  0  0999 V2000
   39.1859   14.3794   85.1571 C   0  0  0  0  0  0
   40.1217   13.3447   84.6682 C   0  0  0  0  0  0
   39.8015   12.1355   84.8230 O   0  0  0  0  0  0
   41.4190   13.6655   84.0249 C   0  0  0  0  0  0
   41.9037   14.9787   84.0425 C   0  0  0  0  0  0
   43.1194   15.3296   83.4113 C   0  0  0  0  0  0
   43.9039   14.2957   82.8163 C   0  0  0  0  0  0
   43.3649   12.9921   82.7542 C   0  0  0  0  0  0
   42.1437   12.6839   83.3455 C   0  0  0  0  0  0
   45.2703   14.5662   82.1683 C   0  0  0  0  0  0
   46.3114   13.5135   82.6245 C   0  0  0  0  0  0
   45.1240   14.4839   80.6316 C   0  0  0  0  0  0
   45.8277   15.9528   82.5750 C   0  0  0  0  0  0
   44.7696   17.0463   82.4931 C   0  0  0  0  0  0
   43.5871   16.7927   83.4613 C   0  0  0  0  0  0
   42.4456   17.7490   83.0334 C   0  0  0  0  0  0
   44.0056   17.1378   84.9090 C   0  0  0  0  0  0
   38.2322   14.1239   86.0652 C   0  0  0  0  0  0
   37.2832   15.1428   86.5775 C   0  0  0  0  0  0
   36.3268   14.8600   87.5714 C   0  0  0  0  0  0
   35.4482   15.8534   88.0149 C   0  0  0  0  0  0
   35.5023   17.1497   87.4744 C   0  0  0  0  0  0
   34.5744   18.2125   87.9325 C   0  0  0  0  0  0
   33.6294   17.9231   88.7139 O   0  0  0  0  0  0
   34.7053   19.5349   87.5096 O   0  0  0  0  0  0
   36.4386   17.4225   86.4629 C   0  0  0  0  0  0
   37.3167   16.4299   86.0197 C   0  0  0  0  0  0
   35.4248   19.8323   86.8635 H   0  0  0  0  0  0
  1  2  1  0  0  0
  2  3  2  0  0  0
  2  4  1  0  0  0
  4  5  2  0  0  0
  5  6  1  0  0  0
  6  7  2  0  0  0
  7  8  1  0  0  0
  8  9  2  0  0  0
  7 10  1  0  0  0
 10 11  1  0  0  0
 10 12  1  0  0  0
 10 13  1  0  0  0
 13 14  1  0  0  0
 14 15  1  0  0  0
 15 16  1  0  0  0
 15 17  1  0  0  0
  1 18  2  0  0  0
 18 19  1  0  0  0
 19 20  2  0  0  0
 20 21  1  0  0  0
 21 22  2  0  0  0
 22 23  1  0  0  0
 23 24  2  0  0  0
 23 25  1  0  0  0
 22 26  1  0  0  0
 26 27  2  0  0  0
  9  4  1  0  0  0
 27 19  1  0  0  0
 15  6  1  0  0  0
 25 28  1  0  0  0
M  END
>  <CHROM.0>
4.39280638,-60.56277484,-176.72669709,67.68540401,63.95655787,-176.55352127
63.61998054,71.27031944

>  <CHROM.1>
19.34187466,9.96099491,-177.32842767,-7.56410865,0.94834225,40.42782517,15.52202001
84.79369017,2.89334419,0.47854765,0.07054792

>  <RI>
3.35367e+07

>  <Rbt.Current_Directory>
/extra/banzai2/j5wagner/CELPP/2016_10_17_rdock_implementation/normal_run/tutorialVideo/tutorial_rdock_implementation/full_week_run/4-docking/1fcz/hiTanimoto_1fcz_docking

>  <Rbt.Executable>
rbdock ($Id: //depot/dev/client3/rdock/2013.1/src/exe/rbdock.cxx#4 $)

>  <Rbt.Library>
libRbt.so (2013.1, Build901 2013/11/27)

>  <Rbt.Parameter_File>
/home/j5wagner/env_00/source/rDock/rDock_2013.1_src//data/scripts/dock.prm

>  <Rbt.Receptor>
/extra/banzai2/j5wagner/CELPP/2016_10_17_rdock_implementation/normal_run/tutorialVideo/tutorial_rdock_implementation/full_week_run/4-docking/1fcz/hiTanimoto_1fcz_tech_prep/rDockGridGenInput.prm

>  <SCORE>
-40.2786

>  <SCORE.INTER>
-25.4008

>  <SCORE.INTER.CONST>
1

>  <SCORE.INTER.POLAR>
-2.41013

>  <SCORE.INTER.REPUL>
0

>  <SCORE.INTER.ROT>
4

>  <SCORE.INTER.VDW>
-26.6064

>  <SCORE.INTER.norm>
-0.94077

>  <SCORE.INTRA>
-3.28429

>  <SCORE.INTRA.DIHEDRAL>
-8.62525

>  <SCORE.INTRA.DIHEDRAL.0>
10.7811

>  <SCORE.INTRA.POLAR>
0

>  <SCORE.INTRA.POLAR.0>
0

>  <SCORE.INTRA.REPUL>
0

>  <SCORE.INTRA.REPUL.0>
0

>  <SCORE.INTRA.VDW>
1.02833

>  <SCORE.INTRA.VDW.0>
-0.812999

>  <SCORE.INTRA.norm>
-0.121641

>  <SCORE.RESTR>
0

>  <SCORE.RESTR.CAVITY>
0

>  <SCORE.RESTR.norm>
0

>  <SCORE.SYSTEM>
-11.5935

>  <SCORE.SYSTEM.CONST>
0

>  <SCORE.SYSTEM.DIHEDRAL>
1.11415

>  <SCORE.SYSTEM.POLAR>
-3.07564

>  <SCORE.SYSTEM.REPUL>
0.202354

>  <SCORE.SYSTEM.VDW>
-2.70521

>  <SCORE.SYSTEM.norm>
-0.42939

>  <SCORE.heavy>
27

>  <SCORE.norm>
-1.4918

$$$$

  rDOCK(R)          3D
libRbt.so/2013.1/901 2013/11/27
 28 30  0  0  0  0  0  0  0  0999 V2000
   39.3429   14.8447   85.4732 C   0  0  0  0  0  0
   40.0841   13.6437   85.0334 C   0  0  0  0  0  0
   39.9092   12.5721   85.6735 O   0  0  0  0  0  0
   41.0311   13.6498   83.8919 C   0  0  0  0  0  0
   41.9604   14.6882   83.7583 C   0  0  0  0  0  0
   42.8565   14.7463   82.6660 C   0  0  0  0  0  0
   42.8605   13.6705   81.7273 C   0  0  0  0  0  0
   41.8725   12.6688   81.8463 C   0  0  0  0  0  0
   40.9730   12.6606   82.9078 C   0  0  0  0  0  0
   43.8429   13.6086   80.5478 C   0  0  0  0  0  0
   44.4682   12.1961   80.4288 C   0  0  0  0  0  0
   43.0807   13.9241   79.2405 C   0  0  0  0  0  0
   45.0155   14.6035   80.7320 C   0  0  0  0  0  0
   44.5405   15.9755   81.1942 C   0  0  0  0  0  0
   43.8439   15.9205   82.5768 C   0  0  0  0  0  0
   43.1084   17.2717   82.7613 C   0  0  0  0  0  0
   44.9006   15.7752   83.6960 C   0  0  0  0  0  0
   38.3454   14.7938   86.3685 C   0  0  0  0  0  0
   37.5879   15.9825   86.8318 C   0  0  0  0  0  0
   36.7290   15.9500   87.9471 C   0  0  0  0  0  0
   36.0299   17.0960   88.3388 C   0  0  0  0  0  0
   36.1700   18.2985   87.6249 C   0  0  0  0  0  0
   35.4320   19.5210   88.0266 C   0  0  0  0  0  0
   35.0052   20.3119   87.1435 O   0  0  0  0  0  0
   35.2054   19.8359   89.3660 O   0  0  0  0  0  0
   37.0058   18.3216   86.4957 C   0  0  0  0  0  0
   37.7045   17.1766   86.1042 C   0  0  0  0  0  0
   34.7723   20.7027   89.6569 H   0  0  0  0  0  0
  1  2  1  0  0  0
  2  3  2  0  0  0
  2  4  1  0  0  0
  4  5  2  0  0  0
  5  6  1  0  0  0
  6  7  2  0  0  0
  7  8  1  0  0  0
  8  9  2  0  0  0
  7 10  1  0  0  0
 10 11  1  0  0  0
 10 12  1  0  0  0
 10 13  1  0  0  0
 13 14  1  0  0  0
 14 15  1  0  0  0
 15 16  1  0  0  0
 15 17  1  0  0  0
  1 18  2  0  0  0
 18 19  1  0  0  0
 19 20  2  0  0  0
 20 21  1  0  0  0
 21 22  2  0  0  0
 22 23  1  0  0  0
 23 24  2  0  0  0
 23 25  1  0  0  0
 22 26  1  0  0  0
 26 27  2  0  0  0
  9  4  1  0  0  0
 27 19  1  0  0  0
 15  6  1  0  0  0
 25 28  1  0  0  0
M  END
>  <CHROM.0>
-159.29257735,177.47260011,-65.09339849,175.04425596,62.70557443,-59.67645454
-178.52648174,70.55281935

>  <CHROM.1>
-11.11435320,44.83704512,-167.49214935,-144.19803758,174.77559916,40.32687717
15.59334073,84.39314614,2.70929603,0.68141124,0.04810726

>  <RI>
3.35367e+07

>  <Rbt.Current_Directory>
/extra/banzai2/j5wagner/CELPP/2016_10_17_rdock_implementation/normal_run/tutorialVideo/tutorial_rdock_implementation/full_week_run/4-docking/1fcz/hiTanimoto_1fcz_docking

>  <Rbt.Executable>
rbdock ($Id: //depot/dev/client3/rdock/2013.1/src/exe/rbdock.cxx#4 $)

>  <Rbt.Library>
libRbt.so (2013.1, Build901 2013/11/27)

>  <Rbt.Parameter_File>
/home/j5wagner/env_00/source/rDock/rDock_2013.1_src//data/scripts/dock.prm

>  <Rbt.Receptor>
/extra/banzai2/j5wagner/CELPP/2016_10_17_rdock_implementation/normal_run/tutorialVideo/tutorial_rdock_implementation/full_week_run/4-docking/1fcz/hiTanimoto_1fcz_tech_prep/rDockGridGenInput.prm

>  <SCORE>
-38.7465

>  <SCORE.INTER>
-21.808

>  <SCORE.INTER.CONST>
1

>  <SCORE.INTER.POLAR>
0

>  <SCORE.INTER.REPUL>
0

>  <SCORE.INTER.ROT>
4

>  <SCORE.INTER.VDW>
-31.208

>  <SCORE.INTER.norm>
-0.807704

>  <SCORE.INTRA>
1.23381

>  <SCORE.INTRA.DIHEDRAL>
1.56643

>  <SCORE.INTRA.DIHEDRAL.0>
10.7811

>  <SCORE.INTRA.POLAR>
0

>  <SCORE.INTRA.POLAR.0>
0

>  <SCORE.INTRA.REPUL>
0

>  <SCORE.INTRA.REPUL.0>
0

>  <SCORE.INTRA.VDW>
0.450594

>  <SCORE.INTRA.VDW.0>
-0.812999

>  <SCORE.INTRA.norm>
0.0456967

>  <SCORE.RESTR>
0

>  <SCORE.RESTR.CAVITY>
0

>  <SCORE.RESTR.norm>
0

>  <SCORE.SYSTEM>
-18.1723

>  <SCORE.SYSTEM.CONST>
0

>  <SCORE.SYSTEM.DIHEDRAL>
1.42044

>  <SCORE.SYSTEM.POLAR>
-4.75571

>  <SCORE.SYSTEM.VDW>
-2.71313

>  <SCORE.SYSTEM.norm>
-0.67305

>  <SCORE.heavy>
27

>  <SCORE.norm>
-1.43506

$$$$

  rDOCK(R)          3D
libRbt.so/2013.1/901 2013/11/27
 28 30  0  0  0  0  0  0  0  0999 V2000
   39.4568   14.5624   85.4784 C   0  0  0  0  0  0
   40.1577   13.3568   84.9882 C   0  0  0  0  0  0
   39.9578   12.2686   85.5920 O   0  0  0  0  0  0
   41.0927   13.3760   83.8370 C   0  0  0  0  0  0
   42.0259   14.4117   83.7098 C   0  0  0  0  0  0
   42.9108   14.4824   82.6091 C   0  0  0  0  0  0
   42.8993   13.4215   81.6537 C   0  0  0  0  0  0
   41.9075   12.4230   81.7675 C   0  0  0  0  0  0
   41.0191   12.4027   82.8381 C   0  0  0  0  0  0
   43.8690   13.3731   80.4630 C   0  0  0  0  0  0
   44.4856   11.9595   80.3154 C   0  0  0  0  0  0
   43.0947   13.7129   79.1689 C   0  0  0  0  0  0
   45.0486   14.3591   80.6503 C   0  0  0  0  0  0
   44.5857   15.7261   81.1390 C   0  0  0  0  0  0
   43.9033   15.6529   82.5278 C   0  0  0  0  0  0
   43.1769   17.0047   82.7412 C   0  0  0  0  0  0
   44.9709   15.4847   83.6333 C   0  0  0  0  0  0
   38.4389   14.5053   86.3502 C   0  0  0  0  0  0
   37.7207   15.6980   86.8629 C   0  0  0  0  0  0
   36.7150   15.6166   87.8451 C   0  0  0  0  0  0
   36.0611   16.7700   88.2894 C   0  0  0  0  0  0
   36.3937   18.0294   87.7616 C   0  0  0  0  0  0
   35.7060   19.2609   88.2207 C   0  0  0  0  0  0
   35.6744   20.2747   87.4732 O   0  0  0  0  0  0
   35.0991   19.3402   89.4737 O   0  0  0  0  0  0
   37.3778   18.1054   86.7616 C   0  0  0  0  0  0
   38.0315   16.9530   86.3175 C   0  0  0  0  0  0
   34.7639   20.2116   89.8634 H   0  0  0  0  0  0
  1  2  1  0  0  0
  2  3  2  0  0  0
  2  4  1  0  0  0
  4  5  2  0  0  0
  5  6  1  0  0  0
  6  7  2  0  0  0
  7  8  1  0  0  0
  8  9  2  0  0  0
  7 10  1  0  0  0
 10 11  1  0  0  0
 10 12  1  0  0  0
 10 13  1  0  0  0
 13 14  1  0  0  0
 14 15  1  0  0  0
 15 16  1  0  0  0
 15 17  1  0  0  0
  1 18  2  0  0  0
 18 19  1  0  0  0
 19 20  2  0  0  0
 20 21  1  0  0  0
 21 22  2  0  0  0
 22 23  1  0  0  0
 23 24  2  0  0  0
 23 25  1  0  0  0
 22 26  1  0  0  0
 26 27  2  0  0  0
  9  4  1  0  0  0
 27 19  1  0  0  0
 15  6  1  0  0  0
 25 28  1  0  0  0
M  END
>  <CHROM.0>
-17.26486727,-61.38765389,-65.89945906,-58.54260618,-56.66827188,-56.84165931
73.79620980,69.73650139

>  <CHROM.1>
-13.31624786,43.04723193,-175.63320215,-156.45636458,169.49372352,40.43366404
15.32703731,84.39717861,2.67470140,0.68852756,0.10529627

>  <RI>
3.35367e+07

>  <Rbt.Current_Directory>
/extra/banzai2/j5wagner/CELPP/2016_10_17_rdock_implementation/normal_run/tutorialVideo/tutorial_rdock_implementation/full_week_run/4-docking/1fcz/hiTanimoto_1fcz_docking

>  <Rbt.Executable>
rbdock ($Id: //depot/dev/client3/rdock/2013.1/src/exe/rbdock.cxx#4 $)

>  <Rbt.Library>
libRbt.so (2013.1, Build901 2013/11/27)

>  <Rbt.Parameter_File>
/home/j5wagner/env_00/source/rDock/rDock_2013.1_src//data/scripts/dock.prm

>  <Rbt.Receptor>
/extra/banzai2/j5wagner/CELPP/2016_10_17_rdock_implementation/normal_run/tutorialVideo/tutorial_rdock_implementation/full_week_run/4-docking/1fcz/hiTanimoto_1fcz_tech_prep/rDockGridGenInput.prm

>  <SCORE>
-36.6891

>  <SCORE.INTER>
-21.767

>  <SCORE.INTER.CONST>
1

>  <SCORE.INTER.POLAR>
-0.371233

>  <SCORE.INTER.REPUL>
0.00583391

>  <SCORE.INTER.ROT>
4

>  <SCORE.INTER.VDW>
-29.934

>  <SCORE.INTER.norm>
-0.806187

>  <SCORE.INTRA>
0.115557

>  <SCORE.INTRA.DIHEDRAL>
-1.01037

>  <SCORE.INTRA.DIHEDRAL.0>
10.7811

>  <SCORE.INTRA.POLAR>
0

>  <SCORE.INTRA.POLAR.0>
0

>  <SCORE.INTRA.REPUL>
0

>  <SCORE.INTRA.REPUL.0>
0

>  <SCORE.INTRA.VDW>
0.620741

>  <SCORE.INTRA.VDW.0>
-0.812999

>  <SCORE.INTRA.norm>
0.00427988

>  <SCORE.RESTR>
0

>  <SCORE.RESTR.CAVITY>
0

>  <SCORE.RESTR.norm>
0

>  <SCORE.SYSTEM>
-15.0376

>  <SCORE.SYSTEM.CONST>
0

>  <SCORE.SYSTEM.DIHEDRAL>
2.0388

>  <SCORE.SYSTEM.POLAR>
-4.25057

>  <SCORE.SYSTEM.REPUL>
0.202354

>  <SCORE.SYSTEM.VDW>
-2.61682

>  <SCORE.SYSTEM.norm>
-0.556947

>  <SCORE.heavy>
27

>  <SCORE.norm>
-1.35885

$$$$

  rDOCK(R)          3D
libRbt.so/2013.1/901 2013/11/27
 28 30  0  0  0  0  0  0  0  0999 V2000
   39.5965   14.3006   85.8799 C   0  0  0  0  0  0
   40.8661   13.6769   85.4504 C   0  0  0  0  0  0
   41.5538   13.0750   86.3184 O   0  0  0  0  0  0
   41.3702   13.7440   84.0572 C   0  0  0  0  0  0
   42.6951   14.1223   83.8092 C   0  0  0  0  0  0
   43.2022   14.2302   82.4936 C   0  0  0  0  0  0
   42.3576   13.8617   81.4032 C   0  0  0  0  0  0
   41.0081   13.5460   81.6730 C   0  0  0  0  0  0
   40.5233   13.4910   82.9760 C   0  0  0  0  0  0
   42.8392   13.8785   79.9444 C   0  0  0  0  0  0
   42.4165   12.5801   79.2125 C   0  0  0  0  0  0
   42.2031   15.0857   79.2179 C   0  0  0  0  0  0
   44.3834   13.9597   79.8566 C   0  0  0  0  0  0
   44.9616   14.9969   80.8114 C   0  0  0  0  0  0
   44.6641   14.6605   82.2940 C   0  0  0  0  0  0
   44.9777   15.9371   83.1141 C   0  0  0  0  0  0
   45.5935   13.5224   82.7749 C   0  0  0  0  0  0
   39.4111   15.6289   85.8989 C   0  0  0  0  0  0
   38.1472   16.2821   86.3200 C   0  0  0  0  0  0
   37.9355   17.6700   86.2123 C   0  0  0  0  0  0
   36.7289   18.2390   86.6315 C   0  0  0  0  0  0
   35.7084   17.4367   87.1700 C   0  0  0  0  0  0
   34.4247   18.0269   87.6222 C   0  0  0  0  0  0
   33.5487   17.2896   88.1479 O   0  0  0  0  0  0
   34.1456   19.3845   87.4688 O   0  0  0  0  0  0
   35.9321   16.0559   87.3026 C   0  0  0  0  0  0
   37.1377   15.4870   86.8837 C   0  0  0  0  0  0
   34.7922   20.0284   87.0319 H   0  0  0  0  0  0
  1  2  1  0  0  0
  2  3  2  0  0  0
  2  4  1  0  0  0
  4  5  2  0  0  0
  5  6  1  0  0  0
  6  7  2  0  0  0
  7  8  1  0  0  0
  8  9  2  0  0  0
  7 10  1  0  0  0
 10 11  1  0  0  0
 10 12  1  0  0  0
 10 13  1  0  0  0
 13 14  1  0  0  0
 14 15  1  0  0  0
 15 16  1  0  0  0
 15 17  1  0  0  0
  1 18  2  0  0  0
 18 19  1  0  0  0
 19 20  2  0  0  0
 20 21  1  0  0  0
 21 22  2  0  0  0
 22 23  1  0  0  0
 23 24  2  0  0  0
 23 25  1  0  0  0
 22 26  1  0  0  0
 26 27  2  0  0  0
  9  4  1  0  0  0
 27 19  1  0  0  0
 15  6  1  0  0  0
 25 28  1  0  0  0
M  END
>  <CHROM.0>
-2.45218414,58.89062112,-64.90379035,67.79080867,-177.73892001,-177.26337751
-178.95636747,69.75510761

>  <CHROM.1>
112.52774128,131.12249631,-173.88653361,-177.28551492,1.00022296,40.29687365
15.21759132,84.10844767,-2.58987296,0.46645282,-1.45208171

>  <RI>
3.35367e+07

>  <Rbt.Current_Directory>
/extra/banzai2/j5wagner/CELPP/2016_10_17_rdock_implementation/normal_run/tutorialVideo/tutorial_rdock_implementation/full_week_run/4-docking/1fcz/hiTanimoto_1fcz_docking

>  <Rbt.Executable>
rbdock ($Id: //depot/dev/client3/rdock/2013.1/src/exe/rbdock.cxx#4 $)

>  <Rbt.Library>
libRbt.so (2013.1, Build901 2013/11/27)

>  <Rbt.Parameter_File>
/home/j5wagner/env_00/source/rDock/rDock_2013.1_src//data/scripts/dock.prm

>  <Rbt.Receptor>
/extra/banzai2/j5wagner/CELPP/2016_10_17_rdock_implementation/normal_run/tutorialVideo/tutorial_rdock_implementation/full_week_run/4-docking/1fcz/hiTanimoto_1fcz_tech_prep/rDockGridGenInput.prm

>  <SCORE>
-35.7566

>  <SCORE.INTER>
-22.673

>  <SCORE.INTER.CONST>
1

>  <SCORE.INTER.POLAR>
-1.40258

>  <SCORE.INTER.REPUL>
0.13492

>  <SCORE.INTER.ROT>
4

>  <SCORE.INTER.VDW>
-27.9788

>  <SCORE.INTER.norm>
-0.83974

>  <SCORE.INTRA>
3.20493

>  <SCORE.INTRA.DIHEDRAL>
5.96725

>  <SCORE.INTRA.DIHEDRAL.0>
10.7811

>  <SCORE.INTRA.POLAR>
0

>  <SCORE.INTRA.POLAR.0>
0

>  <SCORE.INTRA.REPUL>
0

>  <SCORE.INTRA.REPUL.0>
0

>  <SCORE.INTRA.VDW>
0.2213

>  <SCORE.INTRA.VDW.0>
-0.812999

>  <SCORE.INTRA.norm>
0.118701

>  <SCORE.RESTR>
0

>  <SCORE.RESTR.CAVITY>
0

>  <SCORE.RESTR.norm>
0

>  <SCORE.SYSTEM>
-16.2885

>  <SCORE.SYSTEM.CONST>
0

>  <SCORE.SYSTEM.DIHEDRAL>
0.930844

>  <SCORE.SYSTEM.POLAR>
-4.38384

>  <SCORE.SYSTEM.REPUL>
0.202354

>  <SCORE.SYSTEM.VDW>
-2.86067

>  <SCORE.SYSTEM.norm>
-0.603278

>  <SCORE.heavy>
27

>  <SCORE.norm>
-1.32432

$$$$

  rDOCK(R)          3D
libRbt.so/2013.1/901 2013/11/27
 28 30  0  0  0  0  0  0  0  0999 V2000
   39.8879   14.7293   85.4966 C   0  0  0  0  0  0
   40.9990   13.8246   85.1329 C   0  0  0  0  0  0
   41.5095   13.1176   86.0430 O   0  0  0  0  0  0
   41.5465   13.7271   83.7579 C   0  0  0  0  0  0
   42.8946   14.0187   83.5186 C   0  0  0  0  0  0
   43.4449   13.9696   82.2169 C   0  0  0  0  0  0
   42.6160   13.5302   81.1407 C   0  0  0  0  0  0
   41.2456   13.3041   81.3946 C   0  0  0  0  0  0
   40.7206   13.4035   82.6793 C   0  0  0  0  0  0
   43.1406   13.3771   79.7048 C   0  0  0  0  0  0
   42.6778   12.0312   79.0927 C   0  0  0  0  0  0
   42.5846   14.5313   78.8398 C   0  0  0  0  0  0
   44.6888   13.3798   79.6621 C   0  0  0  0  0  0
   45.2877   14.4819   80.5273 C   0  0  0  0  0  0
   44.9309   14.3115   82.0252 C   0  0  0  0  0  0
   45.2810   15.6496   82.7235 C   0  0  0  0  0  0
   45.7902   13.1879   82.6490 C   0  0  0  0  0  0
   38.9839   14.4248   86.4397 C   0  0  0  0  0  0
   37.8622   15.3148   86.8286 C   0  0  0  0  0  0
   37.6159   16.5488   86.1968 C   0  0  0  0  0  0
   36.5500   17.3561   86.6062 C   0  0  0  0  0  0
   35.7085   16.9517   87.6567 C   0  0  0  0  0  0
   34.5763   17.7993   88.1041 C   0  0  0  0  0  0
   34.2710   18.8312   87.4488 O   0  0  0  0  0  0
   33.8393   17.4969   89.2486 O   0  0  0  0  0  0
   35.9727   15.7332   88.3045 C   0  0  0  0  0  0
   37.0377   14.9262   87.8954 C   0  0  0  0  0  0
   33.2934   18.1893   89.7447 H   0  0  0  0  0  0
  1  2  1  0  0  0
  2  3  2  0  0  0
  2  4  1  0  0  0
  4  5  2  0  0  0
  5  6  1  0  0  0
  6  7  2  0  0  0
  7  8  1  0  0  0
  8  9  2  0  0  0
  7 10  1  0  0  0
 10 11  1  0  0  0
 10 12  1  0  0  0
 10 13  1  0  0  0
 13 14  1  0  0  0
 14 15  1  0  0  0
 15 16  1  0  0  0
 15 17  1  0  0  0
  1 18  2  0  0  0
 18 19  1  0  0  0
 19 20  2  0  0  0
 20 21  1  0  0  0
 21 22  2  0  0  0
 22 23  1  0  0  0
 23 24  2  0  0  0
 23 25  1  0  0  0
 22 26  1  0  0  0
 26 27  2  0  0  0
  9  4  1  0  0  0
 27 19  1  0  0  0
 15  6  1  0  0  0
 25 28  1  0  0  0
M  END
>  <CHROM.0>
-154.38036052,-178.86923443,-64.88978689,-55.21653464,176.49835237,59.73372909
-174.53497987,-56.65446329

>  <CHROM.1>
-33.92949824,120.23702005,2.59000422,7.53623790,158.65172718,40.42006797
14.83890234,84.13015688,-2.49119171,0.38618105,-1.55124403

>  <RI>
3.35367e+07

>  <Rbt.Current_Directory>
/extra/banzai2/j5wagner/CELPP/2016_10_17_rdock_implementation/normal_run/tutorialVideo/tutorial_rdock_implementation/full_week_run/4-docking/1fcz/hiTanimoto_1fcz_docking

>  <Rbt.Executable>
rbdock ($Id: //depot/dev/client3/rdock/2013.1/src/exe/rbdock.cxx#4 $)

>  <Rbt.Library>
libRbt.so (2013.1, Build901 2013/11/27)

>  <Rbt.Parameter_File>
/home/j5wagner/env_00/source/rDock/rDock_2013.1_src//data/scripts/dock.prm

>  <Rbt.Receptor>
/extra/banzai2/j5wagner/CELPP/2016_10_17_rdock_implementation/normal_run/tutorialVideo/tutorial_rdock_implementation/full_week_run/4-docking/1fcz/hiTanimoto_1fcz_tech_prep/rDockGridGenInput.prm

>  <SCORE>
-30.6989

>  <SCORE.INTER>
-22.6237

>  <SCORE.INTER.CONST>
1

>  <SCORE.INTER.POLAR>
-2.03685

>  <SCORE.INTER.REPUL>
0.156071

>  <SCORE.INTER.ROT>
4

>  <SCORE.INTER.VDW>
-25.8788

>  <SCORE.INTER.norm>
-0.837915

>  <SCORE.INTRA>
2.70594

>  <SCORE.INTRA.DIHEDRAL>
5.10648

>  <SCORE.INTRA.DIHEDRAL.0>
10.7811

>  <SCORE.INTRA.POLAR>
0

>  <SCORE.INTRA.POLAR.0>
0

>  <SCORE.INTRA.REPUL>
0

>  <SCORE.INTRA.REPUL.0>
0

>  <SCORE.INTRA.VDW>
0.152699

>  <SCORE.INTRA.VDW.0>
-0.812999

>  <SCORE.INTRA.norm>
0.10022

>  <SCORE.RESTR>
0

>  <SCORE.RESTR.CAVITY>
0

>  <SCORE.RESTR.norm>
0

>  <SCORE.SYSTEM>
-10.7812

>  <SCORE.SYSTEM.CONST>
0

>  <SCORE.SYSTEM.DIHEDRAL>
1.35197

>  <SCORE.SYSTEM.POLAR>
-3.40351

>  <SCORE.SYSTEM.REPUL>
0.190754

>  <SCORE.SYSTEM.VDW>
-0.839027

>  <SCORE.SYSTEM.norm>
-0.399303

>  <SCORE.heavy>
27

>  <SCORE.norm>
-1.137

$$$$

  rDOCK(R)          3D
libRbt.so/2013.1/901 2013/11/27
 28 30  0  0  0  0  0  0  0  0999 V2000
   38.5205   13.7092   85.4302 C   0  0  0  0  0  0
   39.5118   12.9009   84.6891 C   0  0  0  0  0  0
   39.3778   11.6477   84.6948 O   0  0  0  0  0  0
   40.6586   13.4954   83.9602 C   0  0  0  0  0  0
   41.1142   14.7758   84.2961 C   0  0  0  0  0  0
   42.1826   15.3892   83.6019 C   0  0  0  0  0  0
   42.8592   14.6420   82.5908 C   0  0  0  0  0  0
   42.3418   13.3800   82.2258 C   0  0  0  0  0  0
   41.2598   12.8188   82.8967 C   0  0  0  0  0  0
   44.0739   15.1952   81.8300 C   0  0  0  0  0  0
   45.2011   14.1352   81.7519 C   0  0  0  0  0  0
   43.6420   15.5651   80.3926 C   0  0  0  0  0  0
   44.6729   16.4346   82.5399 C   0  0  0  0  0  0
   43.5989   17.4202   82.9836 C   0  0  0  0  0  0
   42.6249   16.8012   84.0171 C   0  0  0  0  0  0
   41.4062   17.7535   84.1096 C   0  0  0  0  0  0
   43.3026   16.7283   85.4048 C   0  0  0  0  0  0
   38.5069   15.0500   85.3963 C   0  0  0  0  0  0
   37.5217   15.8863   86.1253 C   0  0  0  0  0  0
   36.4791   15.3363   86.8954 C   0  0  0  0  0  0
   35.5701   16.1677   87.5571 C   0  0  0  0  0  0
   35.6793   17.5657   87.4627 C   0  0  0  0  0  0
   34.7202   18.4600   88.1562 C   0  0  0  0  0  0
   33.6682   17.9803   88.6566 O   0  0  0  0  0  0
   34.9393   19.8332   88.2605 O   0  0  0  0  0  0
   36.7034   18.1124   86.6711 C   0  0  0  0  0  0
   37.6120   17.2818   86.0099 C   0  0  0  0  0  0
   34.2995   20.4529   88.7402 H   0  0  0  0  0  0
  1  2  1  0  0  0
  2  3  2  0  0  0
  2  4  1  0  0  0
  4  5  2  0  0  0
  5  6  1  0  0  0
  6  7  2  0  0  0
  7  8  1  0  0  0
  8  9  2  0  0  0
  7 10  1  0  0  0
 10 11  1  0  0  0
 10 12  1  0  0  0
 10 13  1  0  0  0
 13 14  1  0  0  0
 14 15  1  0  0  0
 15 16  1  0  0  0
 15 17  1  0  0  0
  1 18  2  0  0  0
 18 19  1  0  0  0
 19 20  2  0  0  0
 20 21  1  0  0  0
 21 22  2  0  0  0
 22 23  1  0  0  0
 23 24  2  0  0  0
 23 25  1  0  0  0
 22 26  1  0  0  0
 26 27  2  0  0  0
  9  4  1  0  0  0
 27 19  1  0  0  0
 15  6  1  0  0  0
 25 28  1  0  0  0
M  END
>  <CHROM.0>
-159.98048859,-58.75947850,-64.74268958,67.20999701,-174.24472920,64.66640861
-177.67539226,70.05509699

>  <CHROM.1>
-174.30587160,21.48460050,-1.87703373,-11.70692704,-179.23376260,39.90331762
15.77017011,84.78342494,2.76602923,0.51471876,0.20567070

>  <RI>
3.35367e+07

>  <Rbt.Current_Directory>
/extra/banzai2/j5wagner/CELPP/2016_10_17_rdock_implementation/normal_run/tutorialVideo/tutorial_rdock_implementation/full_week_run/4-docking/1fcz/hiTanimoto_1fcz_docking

>  <Rbt.Executable>
rbdock ($Id: //depot/dev/client3/rdock/2013.1/src/exe/rbdock.cxx#4 $)

>  <Rbt.Library>
libRbt.so (2013.1, Build901 2013/11/27)

>  <Rbt.Parameter_File>
/home/j5wagner/env_00/source/rDock/rDock_2013.1_src//data/scripts/dock.prm

>  <Rbt.Receptor>
/extra/banzai2/j5wagner/CELPP/2016_10_17_rdock_implementation/normal_run/tutorialVideo/tutorial_rdock_implementation/full_week_run/4-docking/1fcz/hiTanimoto_1fcz_tech_prep/rDockGridGenInput.prm

>  <SCORE>
-23.7592

>  <SCORE.INTER>
-1.16345

>  <SCORE.INTER.CONST>
1

>  <SCORE.INTER.POLAR>
-0.966306

>  <SCORE.INTER.REPUL>
0

>  <SCORE.INTER.ROT>
4

>  <SCORE.INTER.VDW>
-7.27801

>  <SCORE.INTER.norm>
-0.0430908

>  <SCORE.INTRA>
-3.02772

>  <SCORE.INTRA.DIHEDRAL>
-8.06487

>  <SCORE.INTRA.DIHEDRAL.0>
10.7811

>  <SCORE.INTRA.POLAR>
0

>  <SCORE.INTRA.POLAR.0>
0

>  <SCORE.INTRA.REPUL>
0

>  <SCORE.INTRA.REPUL.0>
0

>  <SCORE.INTRA.VDW>
1.00471

>  <SCORE.INTRA.VDW.0>
-0.812999

>  <SCORE.INTRA.norm>
-0.112138

>  <SCORE.RESTR>
0

>  <SCORE.RESTR.CAVITY>
0

>  <SCORE.RESTR.norm>
0

>  <SCORE.SYSTEM>
-19.568

>  <SCORE.SYSTEM.CONST>
0

>  <SCORE.SYSTEM.DIHEDRAL>
1.57118

>  <SCORE.SYSTEM.POLAR>
-4.97629

>  <SCORE.SYSTEM.VDW>
-3.43422

>  <SCORE.SYSTEM.norm>
-0.724741

>  <SCORE.heavy>
27

>  <SCORE.norm>
-0.87997

$$$$
