
  rDOCK(R)          3D
libRbt.so/2013.1/901 2013/11/27
 14 14  0  0  0  0  0  0  0  0999 V2000
   30.1671   25.7580   21.8602 C   0  0  0  0  0  0
   30.5322   26.3398   20.6345 O   0  0  0  0  0  0
   31.0899   24.7543   22.2343 O   0  0  0  0  0  0
   31.3885   24.9369   23.6026 C   0  0  0  0  0  0
   31.3064   23.5955   24.3418 C   0  0  0  0  0  0
   32.1712   22.6604   23.7559 O   0  0  0  0  0  0
   30.4238   25.9666   24.1849 C   0  0  0  0  0  0
   31.0429   26.7256   25.1913 O   0  0  0  0  0  0
   30.0653   26.7940   22.9757 C   0  0  0  0  0  0
   30.9992   27.8278   22.7781 O   0  0  0  0  0  0
   29.7779   26.9165   20.3436 H   0  0  0  0  0  0
   33.0920   23.0133   23.8715 H   0  0  0  0  0  0
   31.2781   26.0900   25.9166 H   0  0  0  0  0  0
   31.0261   28.3529   23.6201 H   0  0  0  0  0  0
  1  2  1  0  0  0
  1  3  1  0  0  0
  3  4  1  0  0  0
  4  5  1  0  0  0
  5  6  1  0  0  0
  4  7  1  0  0  0
  7  8  1  0  0  0
  7  9  1  0  0  0
  9 10  1  0  0  0
  9  1  1  0  0  0
  2 11  1  0  0  0
  6 12  1  0  0  0
  8 13  1  0  0  0
 10 14  1  0  0  0
M  END
>  <CHROM.0>
-63.28986735,-173.83955665,-58.12457295,129.71313003,65.71292256,63.58350612

>  <CHROM.1>
170.33416472,56.94740556,63.24558655,-63.15250402,-167.81014787,30.95598606
25.55030137,23.14792619,3.12450215,-1.27240496,1.08138712

>  <Name>

>  <RI>
3.66253e+07

>  <Rbt.Current_Directory>
/extra/banzai2/j5wagner/CELPP/2016_10_17_rdock_implementation/normal_run/tutorialVideo/tutorial_rdock_implementation/full_week_run/4-docking/5m93/SMCSS_3tmp_docking

>  <Rbt.Executable>
rbdock ($Id: //depot/dev/client3/rdock/2013.1/src/exe/rbdock.cxx#4 $)

>  <Rbt.Library>
libRbt.so (2013.1, Build901 2013/11/27)

>  <Rbt.Parameter_File>
/home/j5wagner/env_00/source/rDock/rDock_2013.1_src//data/scripts/dock.prm

>  <Rbt.Receptor>
/extra/banzai2/j5wagner/CELPP/2016_10_17_rdock_implementation/normal_run/tutorialVideo/tutorial_rdock_implementation/full_week_run/4-docking/5m93/SMCSS_3tmp_tech_prep/rDockGridGenInput.prm

>  <SCORE>
-13.1844

>  <SCORE.INTER>
1.57935

>  <SCORE.INTER.CONST>
1

>  <SCORE.INTER.POLAR>
-3.15829

>  <SCORE.INTER.REPUL>
0.263791

>  <SCORE.INTER.ROT>
1

>  <SCORE.INTER.VDW>
4.59859

>  <SCORE.INTER.norm>
0.157935

>  <SCORE.INTRA>
-1.35687

>  <SCORE.INTRA.DIHEDRAL>
-3.42204

>  <SCORE.INTRA.DIHEDRAL.0>
5.02738

>  <SCORE.INTRA.POLAR>
-0.0279745

>  <SCORE.INTRA.POLAR.0>
0

>  <SCORE.INTRA.REPUL>
0

>  <SCORE.INTRA.REPUL.0>
0

>  <SCORE.INTRA.VDW>
0.44926

>  <SCORE.INTRA.VDW.0>
-0.709724

>  <SCORE.INTRA.norm>
-0.135687

>  <SCORE.RESTR>
0.147108

>  <SCORE.RESTR.CAVITY>
0.147108

>  <SCORE.RESTR.norm>
0.0147108

>  <SCORE.SYSTEM>
-13.554

>  <SCORE.SYSTEM.CONST>
0

>  <SCORE.SYSTEM.DIHEDRAL>
3.24785

>  <SCORE.SYSTEM.POLAR>
-4.48198

>  <SCORE.SYSTEM.REPUL>
0.00644309

>  <SCORE.SYSTEM.VDW>
0.0286147

>  <SCORE.SYSTEM.norm>
-1.3554

>  <SCORE.heavy>
10

>  <SCORE.norm>
-1.31844

$$$$

  rDOCK(R)          3D
libRbt.so/2013.1/901 2013/11/27
 14 14  0  0  0  0  0  0  0  0999 V2000
   31.1234   26.4575   25.0709 C   0  0  0  0  0  0
   30.3593   26.5584   26.2456 O   0  0  0  0  0  0
   32.3543   25.8107   25.3266 O   0  0  0  0  0  0
   32.5618   24.8651   24.2982 C   0  0  0  0  0  0
   33.9924   24.9822   23.7577 C   0  0  0  0  0  0
   34.4400   26.3081   23.8414 O   0  0  0  0  0  0
   31.5210   25.0894   23.2045 C   0  0  0  0  0  0
   31.1619   23.8771   22.5932 O   0  0  0  0  0  0
   30.3785   25.7117   23.9679 C   0  0  0  0  0  0
   29.5418   24.7225   24.5169 O   0  0  0  0  0  0
   30.8824   27.0985   26.8943 H   0  0  0  0  0  0
   35.2166   26.3853   23.2276 H   0  0  0  0  0  0
   30.4605   24.0970   21.9260 H   0  0  0  0  0  0
   29.0740   24.2897   23.7558 H   0  0  0  0  0  0
  1  2  1  0  0  0
  1  3  1  0  0  0
  3  4  1  0  0  0
  4  5  1  0  0  0
  5  6  1  0  0  0
  4  7  1  0  0  0
  7  8  1  0  0  0
  7  9  1  0  0  0
  9 10  1  0  0  0
  9  1  1  0  0  0
  2 11  1  0  0  0
  6 12  1  0  0  0
  8 13  1  0  0  0
 10 14  1  0  0  0
M  END
>  <CHROM.0>
176.08689764,-52.07652879,59.37661424,-2.28602209,-62.66651978,64.30085184

>  <CHROM.1>
60.89135526,-31.67385754,-161.88866282,177.68019942,178.80998580,31.73246994
25.43770222,24.29195215,-2.93450709,-0.17742559,-2.23619494

>  <Name>

>  <RI>
3.66253e+07

>  <Rbt.Current_Directory>
/extra/banzai2/j5wagner/CELPP/2016_10_17_rdock_implementation/normal_run/tutorialVideo/tutorial_rdock_implementation/full_week_run/4-docking/5m93/SMCSS_3tmp_docking

>  <Rbt.Executable>
rbdock ($Id: //depot/dev/client3/rdock/2013.1/src/exe/rbdock.cxx#4 $)

>  <Rbt.Library>
libRbt.so (2013.1, Build901 2013/11/27)

>  <Rbt.Parameter_File>
/home/j5wagner/env_00/source/rDock/rDock_2013.1_src//data/scripts/dock.prm

>  <Rbt.Receptor>
/extra/banzai2/j5wagner/CELPP/2016_10_17_rdock_implementation/normal_run/tutorialVideo/tutorial_rdock_implementation/full_week_run/4-docking/5m93/SMCSS_3tmp_tech_prep/rDockGridGenInput.prm

>  <SCORE>
-22.9412

>  <SCORE.INTER>
-7.29948

>  <SCORE.INTER.CONST>
1

>  <SCORE.INTER.POLAR>
-2.42435

>  <SCORE.INTER.REPUL>
0.0328771

>  <SCORE.INTER.ROT>
1

>  <SCORE.INTER.VDW>
-5.62107

>  <SCORE.INTER.norm>
-0.729948

>  <SCORE.INTRA>
-0.147765

>  <SCORE.INTRA.DIHEDRAL>
-0.733864

>  <SCORE.INTRA.DIHEDRAL.0>
5.02738

>  <SCORE.INTRA.POLAR>
0

>  <SCORE.INTRA.POLAR.0>
0

>  <SCORE.INTRA.REPUL>
0

>  <SCORE.INTRA.REPUL.0>
0

>  <SCORE.INTRA.VDW>
0.219167

>  <SCORE.INTRA.VDW.0>
-0.709724

>  <SCORE.INTRA.norm>
-0.0147765

>  <SCORE.RESTR>
0.798708

>  <SCORE.RESTR.CAVITY>
0.798708

>  <SCORE.RESTR.norm>
0.0798708

>  <SCORE.SYSTEM>
-16.2926

>  <SCORE.SYSTEM.CONST>
0

>  <SCORE.SYSTEM.DIHEDRAL>
0.367441

>  <SCORE.SYSTEM.POLAR>
-4.29972

>  <SCORE.SYSTEM.VDW>
-1.85731

>  <SCORE.SYSTEM.norm>
-1.62926

>  <SCORE.heavy>
10

>  <SCORE.norm>
-2.29412

$$$$

  rDOCK(R)          3D
libRbt.so/2013.1/901 2013/11/27
 14 14  0  0  0  0  0  0  0  0999 V2000
   30.3984   26.5288   23.2826 C   0  0  0  0  0  0
   30.2645   27.8512   22.8272 O   0  0  0  0  0  0
   31.7192   26.0627   23.0901 O   0  0  0  0  0  0
   32.1174   25.4056   24.2752 C   0  0  0  0  0  0
   32.7632   24.0563   23.9362 C   0  0  0  0  0  0
   31.8830   23.2689   23.1808 O   0  0  0  0  0  0
   30.9000   25.2414   25.1811 C   0  0  0  0  0  0
   31.2647   25.3166   26.5352 O   0  0  0  0  0  0
   30.0220   26.3915   24.7548 C   0  0  0  0  0  0
   30.3495   27.5636   25.4610 O   0  0  0  0  0  0
   29.3018   28.0882   22.8835 H   0  0  0  0  0  0
   31.6397   23.8030   22.3799 H   0  0  0  0  0  0
   30.4396   25.1382   27.0577 H   0  0  0  0  0  0
   29.7127   28.2641   25.1623 H   0  0  0  0  0  0
  1  2  1  0  0  0
  1  3  1  0  0  0
  3  4  1  0  0  0
  4  5  1  0  0  0
  5  6  1  0  0  0
  4  7  1  0  0  0
  7  8  1  0  0  0
  7  9  1  0  0  0
  9 10  1  0  0  0
  9  1  1  0  0  0
  2 11  1  0  0  0
  6 12  1  0  0  0
  8 13  1  0  0  0
 10 14  1  0  0  0
M  END
>  <CHROM.0>
175.33996191,72.12213390,60.18886260,7.30585515,-61.69782991,63.87639166

>  <CHROM.1>
173.28366944,-56.39283729,56.31709261,-176.08828454,70.66666070,31.14771440
25.79626888,24.25014537,-3.06147923,-1.06129265,1.77353300

>  <Name>

>  <RI>
3.66253e+07

>  <Rbt.Current_Directory>
/extra/banzai2/j5wagner/CELPP/2016_10_17_rdock_implementation/normal_run/tutorialVideo/tutorial_rdock_implementation/full_week_run/4-docking/5m93/SMCSS_3tmp_docking

>  <Rbt.Executable>
rbdock ($Id: //depot/dev/client3/rdock/2013.1/src/exe/rbdock.cxx#4 $)

>  <Rbt.Library>
libRbt.so (2013.1, Build901 2013/11/27)

>  <Rbt.Parameter_File>
/home/j5wagner/env_00/source/rDock/rDock_2013.1_src//data/scripts/dock.prm

>  <Rbt.Receptor>
/extra/banzai2/j5wagner/CELPP/2016_10_17_rdock_implementation/normal_run/tutorialVideo/tutorial_rdock_implementation/full_week_run/4-docking/5m93/SMCSS_3tmp_tech_prep/rDockGridGenInput.prm

>  <SCORE>
-27.1325

>  <SCORE.INTER>
-10.7902

>  <SCORE.INTER.CONST>
1

>  <SCORE.INTER.POLAR>
-2.77827

>  <SCORE.INTER.REPUL>
0.1958

>  <SCORE.INTER.ROT>
1

>  <SCORE.INTER.VDW>
-8.7231

>  <SCORE.INTER.norm>
-1.07902

>  <SCORE.INTRA>
-1.71465

>  <SCORE.INTRA.DIHEDRAL>
-3.75233

>  <SCORE.INTRA.DIHEDRAL.0>
5.02738

>  <SCORE.INTRA.POLAR>
-0.0164354

>  <SCORE.INTRA.POLAR.0>
0

>  <SCORE.INTRA.REPUL>
0

>  <SCORE.INTRA.REPUL.0>
0

>  <SCORE.INTRA.VDW>
0.217395

>  <SCORE.INTRA.VDW.0>
-0.709724

>  <SCORE.INTRA.norm>
-0.171465

>  <SCORE.RESTR>
1.37799

>  <SCORE.RESTR.CAVITY>
1.37799

>  <SCORE.RESTR.norm>
0.137799

>  <SCORE.SYSTEM>
-16.0057

>  <SCORE.SYSTEM.CONST>
0

>  <SCORE.SYSTEM.DIHEDRAL>
0.618783

>  <SCORE.SYSTEM.POLAR>
-4.26243

>  <SCORE.SYSTEM.VDW>
-1.82281

>  <SCORE.SYSTEM.norm>
-1.60057

>  <SCORE.heavy>
10

>  <SCORE.norm>
-2.71325

$$$$

  rDOCK(R)          3D
libRbt.so/2013.1/901 2013/11/27
 14 14  0  0  0  0  0  0  0  0999 V2000
   30.5800   26.4827   23.2995 C   0  0  0  0  0  0
   30.6288   27.8331   22.9147 O   0  0  0  0  0  0
   31.8619   25.8915   23.2208 O   0  0  0  0  0  0
   32.0578   25.1376   24.3989 C   0  0  0  0  0  0
   32.6019   23.7470   24.0483 C   0  0  0  0  0  0
   31.6201   22.9877   23.3963 O   0  0  0  0  0  0
   30.7360   25.0558   25.1578 C   0  0  0  0  0  0
   30.9516   25.0242   26.5451 O   0  0  0  0  0  0
   30.0288   26.3113   24.7118 C   0  0  0  0  0  0
   30.3883   27.4058   25.5199 O   0  0  0  0  0  0
   31.4226   27.9461   22.3289 H   0  0  0  0  0  0
   30.9014   22.8215   24.0609 H   0  0  0  0  0  0
   30.0932   24.7407   26.9554 H   0  0  0  0  0  0
   29.9184   28.1989   25.1517 H   0  0  0  0  0  0
  1  2  1  0  0  0
  1  3  1  0  0  0
  3  4  1  0  0  0
  4  5  1  0  0  0
  5  6  1  0  0  0
  4  7  1  0  0  0
  7  8  1  0  0  0
  7  9  1  0  0  0
  9 10  1  0  0  0
  9  1  1  0  0  0
  2 11  1  0  0  0
  6 12  1  0  0  0
  8 13  1  0  0  0
 10 14  1  0  0  0
M  END
>  <CHROM.0>
175.20731100,-38.40661212,177.42605352,9.50098229,66.50399594,175.12355291

>  <CHROM.1>
23.81883852,-69.00855932,-66.50832190,-165.86807108,66.09631464,31.13472073
25.60834544,24.32741219,-2.57653198,-1.12719376,2.19309539

>  <Name>

>  <RI>
3.66253e+07

>  <Rbt.Current_Directory>
/extra/banzai2/j5wagner/CELPP/2016_10_17_rdock_implementation/normal_run/tutorialVideo/tutorial_rdock_implementation/full_week_run/4-docking/5m93/SMCSS_3tmp_docking

>  <Rbt.Executable>
rbdock ($Id: //depot/dev/client3/rdock/2013.1/src/exe/rbdock.cxx#4 $)

>  <Rbt.Library>
libRbt.so (2013.1, Build901 2013/11/27)

>  <Rbt.Parameter_File>
/home/j5wagner/env_00/source/rDock/rDock_2013.1_src//data/scripts/dock.prm

>  <Rbt.Receptor>
/extra/banzai2/j5wagner/CELPP/2016_10_17_rdock_implementation/normal_run/tutorialVideo/tutorial_rdock_implementation/full_week_run/4-docking/5m93/SMCSS_3tmp_tech_prep/rDockGridGenInput.prm

>  <SCORE>
-25.3561

>  <SCORE.INTER>
-11.9483

>  <SCORE.INTER.CONST>
1

>  <SCORE.INTER.POLAR>
-2.7192

>  <SCORE.INTER.REPUL>
0.14952

>  <SCORE.INTER.ROT>
1

>  <SCORE.INTER.VDW>
-9.85066

>  <SCORE.INTER.norm>
-1.19483

>  <SCORE.INTRA>
1.20981

>  <SCORE.INTRA.DIHEDRAL>
1.62965

>  <SCORE.INTRA.DIHEDRAL.0>
5.02738

>  <SCORE.INTRA.POLAR>
0

>  <SCORE.INTRA.POLAR.0>
0

>  <SCORE.INTRA.REPUL>
0

>  <SCORE.INTRA.REPUL.0>
0

>  <SCORE.INTRA.VDW>
0.394983

>  <SCORE.INTRA.VDW.0>
-0.709724

>  <SCORE.INTRA.norm>
0.120981

>  <SCORE.RESTR>
1.34659

>  <SCORE.RESTR.CAVITY>
1.34659

>  <SCORE.RESTR.norm>
0.134659

>  <SCORE.SYSTEM>
-15.9641

>  <SCORE.SYSTEM.CONST>
0

>  <SCORE.SYSTEM.DIHEDRAL>
1.61004

>  <SCORE.SYSTEM.POLAR>
-4.68168

>  <SCORE.SYSTEM.REPUL>
0.0134125

>  <SCORE.SYSTEM.VDW>
-0.918484

>  <SCORE.SYSTEM.norm>
-1.59641

>  <SCORE.heavy>
10

>  <SCORE.norm>
-2.53561

$$$$

  rDOCK(R)          3D
libRbt.so/2013.1/901 2013/11/27
 14 14  0  0  0  0  0  0  0  0999 V2000
   29.9432   26.8340   23.1354 C   0  0  0  0  0  0
   29.8163   28.1058   22.5518 O   0  0  0  0  0  0
   31.1495   26.2154   22.7339 O   0  0  0  0  0  0
   31.7451   25.6533   23.8845 C   0  0  0  0  0  0
   32.1939   24.2156   23.5947 C   0  0  0  0  0  0
   31.0998   23.4310   23.2038 O   0  0  0  0  0  0
   30.7465   25.7155   25.0373 C   0  0  0  0  0  0
   31.4034   25.8993   26.2648 O   0  0  0  0  0  0
   29.8888   26.8972   24.6588 C   0  0  0  0  0  0
   30.4531   28.0989   25.1251 O   0  0  0  0  0  0
   28.8457   28.2924   22.4556 H   0  0  0  0  0  0
   30.6070   23.9523   22.5173 H   0  0  0  0  0  0
   32.0237   25.1311   26.3681 H   0  0  0  0  0  0
   30.2315   28.1625   26.0906 H   0  0  0  0  0  0
  1  2  1  0  0  0
  1  3  1  0  0  0
  3  4  1  0  0  0
  4  5  1  0  0  0
  5  6  1  0  0  0
  4  7  1  0  0  0
  7  8  1  0  0  0
  7  9  1  0  0  0
  9 10  1  0  0  0
  9  1  1  0  0  0
  2 11  1  0  0  0
  6 12  1  0  0  0
  8 13  1  0  0  0
 10 14  1  0  0  0
M  END
>  <CHROM.0>
-65.46024389,-49.16390173,-60.50413375,0.36450249,-61.36283505,-55.66748406

>  <CHROM.1>
151.29355113,-59.02904509,47.50278238,-58.85466302,169.20155468,30.83592389
26.12554222,24.02099099,2.72239080,-1.13366786,1.17672848

>  <Name>

>  <RI>
3.66253e+07

>  <Rbt.Current_Directory>
/extra/banzai2/j5wagner/CELPP/2016_10_17_rdock_implementation/normal_run/tutorialVideo/tutorial_rdock_implementation/full_week_run/4-docking/5m93/SMCSS_3tmp_docking

>  <Rbt.Executable>
rbdock ($Id: //depot/dev/client3/rdock/2013.1/src/exe/rbdock.cxx#4 $)

>  <Rbt.Library>
libRbt.so (2013.1, Build901 2013/11/27)

>  <Rbt.Parameter_File>
/home/j5wagner/env_00/source/rDock/rDock_2013.1_src//data/scripts/dock.prm

>  <Rbt.Receptor>
/extra/banzai2/j5wagner/CELPP/2016_10_17_rdock_implementation/normal_run/tutorialVideo/tutorial_rdock_implementation/full_week_run/4-docking/5m93/SMCSS_3tmp_tech_prep/rDockGridGenInput.prm

>  <SCORE>
-26.3282

>  <SCORE.INTER>
-12.9978

>  <SCORE.INTER.CONST>
1

>  <SCORE.INTER.POLAR>
-4.32991

>  <SCORE.INTER.REPUL>
0.191945

>  <SCORE.INTER.ROT>
1

>  <SCORE.INTER.VDW>
-5.63583

>  <SCORE.INTER.norm>
-1.29978

>  <SCORE.INTRA>
0.21039

>  <SCORE.INTRA.DIHEDRAL>
-0.0530834

>  <SCORE.INTRA.DIHEDRAL.0>
5.02738

>  <SCORE.INTRA.POLAR>
-0.0256018

>  <SCORE.INTRA.POLAR.0>
0

>  <SCORE.INTRA.REPUL>
0

>  <SCORE.INTRA.REPUL.0>
0

>  <SCORE.INTRA.VDW>
0.323978

>  <SCORE.INTRA.VDW.0>
-0.709724

>  <SCORE.INTRA.norm>
0.021039

>  <SCORE.RESTR>
0.925946

>  <SCORE.RESTR.CAVITY>
0.925946

>  <SCORE.RESTR.norm>
0.0925946

>  <SCORE.SYSTEM>
-14.4667

>  <SCORE.SYSTEM.CONST>
0

>  <SCORE.SYSTEM.DIHEDRAL>
0.532729

>  <SCORE.SYSTEM.POLAR>
-4.34202

>  <SCORE.SYSTEM.VDW>
0.0298082

>  <SCORE.SYSTEM.norm>
-1.44667

>  <SCORE.heavy>
10

>  <SCORE.norm>
-2.63282

$$$$

  rDOCK(R)          3D
libRbt.so/2013.1/901 2013/11/27
 14 14  0  0  0  0  0  0  0  0999 V2000
   31.0972   25.9848   23.4542 C   0  0  0  0  0  0
   29.9292   26.5484   23.9947 O   0  0  0  0  0  0
   32.2047   26.2147   24.3023 O   0  0  0  0  0  0
   32.9204   25.0018   24.4089 C   0  0  0  0  0  0
   34.4193   25.2566   24.2066 C   0  0  0  0  0  0
   34.8872   26.1904   25.1417 O   0  0  0  0  0  0
   32.3691   24.0122   23.3858 C   0  0  0  0  0  0
   32.4412   22.6951   23.8678 O   0  0  0  0  0  0
   30.9478   24.4860   23.2108 C   0  0  0  0  0  0
   30.1023   23.9095   24.1766 O   0  0  0  0  0  0
   29.1928   26.3800   23.3501 H   0  0  0  0  0  0
   35.8451   26.3471   24.9322 H   0  0  0  0  0  0
   33.3738   22.5623   24.1810 H   0  0  0  0  0  0
   30.4893   24.1309   25.0635 H   0  0  0  0  0  0
  1  2  1  0  0  0
  1  3  1  0  0  0
  3  4  1  0  0  0
  4  5  1  0  0  0
  5  6  1  0  0  0
  4  7  1  0  0  0
  7  8  1  0  0  0
  7  9  1  0  0  0
  9 10  1  0  0  0
  9  1  1  0  0  0
  2 11  1  0  0  0
  6 12  1  0  0  0
  8 13  1  0  0  0
 10 14  1  0  0  0
M  END
>  <CHROM.0>
-63.67043880,70.12562512,60.55143043,2.21701298,-64.23015696,174.00455721

>  <CHROM.1>
178.46269513,57.57760259,-177.20605694,-50.83867804,-56.02608378,32.12796983
25.03489759,24.05403108,2.96556751,0.18741026,-2.99260816

>  <Name>

>  <RI>
3.66253e+07

>  <Rbt.Current_Directory>
/extra/banzai2/j5wagner/CELPP/2016_10_17_rdock_implementation/normal_run/tutorialVideo/tutorial_rdock_implementation/full_week_run/4-docking/5m93/SMCSS_3tmp_docking

>  <Rbt.Executable>
rbdock ($Id: //depot/dev/client3/rdock/2013.1/src/exe/rbdock.cxx#4 $)

>  <Rbt.Library>
libRbt.so (2013.1, Build901 2013/11/27)

>  <Rbt.Parameter_File>
/home/j5wagner/env_00/source/rDock/rDock_2013.1_src//data/scripts/dock.prm

>  <Rbt.Receptor>
/extra/banzai2/j5wagner/CELPP/2016_10_17_rdock_implementation/normal_run/tutorialVideo/tutorial_rdock_implementation/full_week_run/4-docking/5m93/SMCSS_3tmp_tech_prep/rDockGridGenInput.prm

>  <SCORE>
-21.2959

>  <SCORE.INTER>
-6.36192

>  <SCORE.INTER.CONST>
1

>  <SCORE.INTER.POLAR>
-2.14841

>  <SCORE.INTER.REPUL>
0.165916

>  <SCORE.INTER.ROT>
1

>  <SCORE.INTER.VDW>
-6.2869

>  <SCORE.INTER.norm>
-0.636192

>  <SCORE.INTRA>
-1.29348

>  <SCORE.INTRA.DIHEDRAL>
-4.13159

>  <SCORE.INTRA.DIHEDRAL.0>
5.02738

>  <SCORE.INTRA.POLAR>
0

>  <SCORE.INTRA.POLAR.0>
0

>  <SCORE.INTRA.REPUL>
0

>  <SCORE.INTRA.REPUL.0>
0

>  <SCORE.INTRA.VDW>
0.772321

>  <SCORE.INTRA.VDW.0>
-0.709724

>  <SCORE.INTRA.norm>
-0.129348

>  <SCORE.RESTR>
0.308871

>  <SCORE.RESTR.CAVITY>
0.308871

>  <SCORE.RESTR.norm>
0.0308871

>  <SCORE.SYSTEM>
-13.9494

>  <SCORE.SYSTEM.CONST>
0

>  <SCORE.SYSTEM.DIHEDRAL>
0.585816

>  <SCORE.SYSTEM.POLAR>
-4.22889

>  <SCORE.SYSTEM.REPUL>
0.0134125

>  <SCORE.SYSTEM.VDW>
0.0688504

>  <SCORE.SYSTEM.norm>
-1.39494

>  <SCORE.heavy>
10

>  <SCORE.norm>
-2.12959

$$$$

  rDOCK(R)          3D
libRbt.so/2013.1/901 2013/11/27
 14 14  0  0  0  0  0  0  0  0999 V2000
   30.3773   25.7418   22.7030 C   0  0  0  0  0  0
   30.4413   26.8385   21.8271 O   0  0  0  0  0  0
   31.6210   25.0719   22.7606 O   0  0  0  0  0  0
   31.9016   24.8077   24.1193 C   0  0  0  0  0  0
   32.3535   23.3519   24.2891 C   0  0  0  0  0  0
   31.3620   22.4749   23.8272 O   0  0  0  0  0  0
   30.6583   25.1172   24.9490 C   0  0  0  0  0  0
   31.0074   25.5973   26.2217 O   0  0  0  0  0  0
   29.9609   26.1590   24.1103 C   0  0  0  0  0  0
   30.4406   27.4481   24.4069 O   0  0  0  0  0  0
   30.4091   26.4808   20.9012 H   0  0  0  0  0  0
   31.5440   21.5936   24.2468 H   0  0  0  0  0  0
   31.5189   24.8707   26.6644 H   0  0  0  0  0  0
   30.1948   28.0277   23.6395 H   0  0  0  0  0  0
  1  2  1  0  0  0
  1  3  1  0  0  0
  3  4  1  0  0  0
  4  5  1  0  0  0
  5  6  1  0  0  0
  4  7  1  0  0  0
  7  8  1  0  0  0
  7  9  1  0  0  0
  9 10  1  0  0  0
  9  1  1  0  0  0
  2 11  1  0  0  0
  6 12  1  0  0  0
  8 13  1  0  0  0
 10 14  1  0  0  0
M  END
>  <CHROM.0>
174.56178529,-49.62736130,-57.50317305,11.23828110,67.21953669,64.09341449

>  <CHROM.1>
76.36610218,-58.50404929,-159.91671405,-61.51427108,49.10070565,31.01506334
25.26990587,23.91111771,-2.89795391,-1.20953605,1.53308242

>  <Name>

>  <RI>
3.66253e+07

>  <Rbt.Current_Directory>
/extra/banzai2/j5wagner/CELPP/2016_10_17_rdock_implementation/normal_run/tutorialVideo/tutorial_rdock_implementation/full_week_run/4-docking/5m93/SMCSS_3tmp_docking

>  <Rbt.Executable>
rbdock ($Id: //depot/dev/client3/rdock/2013.1/src/exe/rbdock.cxx#4 $)

>  <Rbt.Library>
libRbt.so (2013.1, Build901 2013/11/27)

>  <Rbt.Parameter_File>
/home/j5wagner/env_00/source/rDock/rDock_2013.1_src//data/scripts/dock.prm

>  <Rbt.Receptor>
/extra/banzai2/j5wagner/CELPP/2016_10_17_rdock_implementation/normal_run/tutorialVideo/tutorial_rdock_implementation/full_week_run/4-docking/5m93/SMCSS_3tmp_tech_prep/rDockGridGenInput.prm

>  <SCORE>
-16.9393

>  <SCORE.INTER>
0.155907

>  <SCORE.INTER.CONST>
1

>  <SCORE.INTER.POLAR>
-2.42311

>  <SCORE.INTER.REPUL>
0.126874

>  <SCORE.INTER.ROT>
1

>  <SCORE.INTER.VDW>
1.36012

>  <SCORE.INTER.norm>
0.0155907

>  <SCORE.INTRA>
-0.64483

>  <SCORE.INTRA.DIHEDRAL>
-1.06638

>  <SCORE.INTRA.DIHEDRAL.0>
5.02738

>  <SCORE.INTRA.POLAR>
-0.131216

>  <SCORE.INTRA.POLAR.0>
0

>  <SCORE.INTRA.REPUL>
0

>  <SCORE.INTRA.REPUL.0>
0

>  <SCORE.INTRA.VDW>
0.334493

>  <SCORE.INTRA.VDW.0>
-0.709724

>  <SCORE.INTRA.norm>
-0.064483

>  <SCORE.RESTR>
0.920142

>  <SCORE.RESTR.CAVITY>
0.920142

>  <SCORE.RESTR.norm>
0.0920142

>  <SCORE.SYSTEM>
-17.3705

>  <SCORE.SYSTEM.CONST>
0

>  <SCORE.SYSTEM.DIHEDRAL>
0.930356

>  <SCORE.SYSTEM.POLAR>
-4.71989

>  <SCORE.SYSTEM.VDW>
-1.78808

>  <SCORE.SYSTEM.norm>
-1.73705

>  <SCORE.heavy>
10

>  <SCORE.norm>
-1.69393

$$$$

  rDOCK(R)          3D
libRbt.so/2013.1/901 2013/11/27
 14 14  0  0  0  0  0  0  0  0999 V2000
   30.1716   25.7397   21.8652 C   0  0  0  0  0  0
   30.5216   26.3151   20.6322 O   0  0  0  0  0  0
   31.1102   24.7521   22.2430 O   0  0  0  0  0  0
   31.4141   24.9512   23.6078 C   0  0  0  0  0  0
   31.3547   23.6156   24.3595 C   0  0  0  0  0  0
   32.2726   22.7066   23.8150 O   0  0  0  0  0  0
   30.4387   25.9729   24.1864 C   0  0  0  0  0  0
   31.0530   26.7495   25.1823 O   0  0  0  0  0  0
   30.0620   26.7842   22.9719 C   0  0  0  0  0  0
   30.9804   27.8289   22.7595 O   0  0  0  0  0  0
   29.7542   26.8715   20.3361 H   0  0  0  0  0  0
   33.1750   23.0981   23.9506 H   0  0  0  0  0  0
   31.3247   26.1201   25.9003 H   0  0  0  0  0  0
   31.0176   28.3520   23.6023 H   0  0  0  0  0  0
  1  2  1  0  0  0
  1  3  1  0  0  0
  3  4  1  0  0  0
  4  5  1  0  0  0
  5  6  1  0  0  0
  4  7  1  0  0  0
  7  8  1  0  0  0
  7  9  1  0  0  0
  9 10  1  0  0  0
  9  1  1  0  0  0
  2 11  1  0  0  0
  6 12  1  0  0  0
  8 13  1  0  0  0
 10 14  1  0  0  0
M  END
>  <CHROM.0>
174.59033502,-52.90948500,64.09641109,2.76107396,-61.80044147,-55.41135054

>  <CHROM.1>
169.76980924,59.61393216,62.72165227,-61.55488582,-166.77578095,30.97568863
25.55672904,23.15454856,-3.14095484,-1.25197362,1.07832700

>  <Name>

>  <RI>
3.66253e+07

>  <Rbt.Current_Directory>
/extra/banzai2/j5wagner/CELPP/2016_10_17_rdock_implementation/normal_run/tutorialVideo/tutorial_rdock_implementation/full_week_run/4-docking/5m93/SMCSS_3tmp_docking

>  <Rbt.Executable>
rbdock ($Id: //depot/dev/client3/rdock/2013.1/src/exe/rbdock.cxx#4 $)

>  <Rbt.Library>
libRbt.so (2013.1, Build901 2013/11/27)

>  <Rbt.Parameter_File>
/home/j5wagner/env_00/source/rDock/rDock_2013.1_src//data/scripts/dock.prm

>  <Rbt.Receptor>
/extra/banzai2/j5wagner/CELPP/2016_10_17_rdock_implementation/normal_run/tutorialVideo/tutorial_rdock_implementation/full_week_run/4-docking/5m93/SMCSS_3tmp_tech_prep/rDockGridGenInput.prm

>  <SCORE>
-14.6756

>  <SCORE.INTER>
2.04863

>  <SCORE.INTER.CONST>
1

>  <SCORE.INTER.POLAR>
-3.02107

>  <SCORE.INTER.REPUL>
0.265648

>  <SCORE.INTER.ROT>
1

>  <SCORE.INTER.VDW>
4.59204

>  <SCORE.INTER.norm>
0.204863

>  <SCORE.INTRA>
-1.3262

>  <SCORE.INTRA.DIHEDRAL>
-3.34169

>  <SCORE.INTRA.DIHEDRAL.0>
5.02738

>  <SCORE.INTRA.POLAR>
-0.0398458

>  <SCORE.INTRA.POLAR.0>
0

>  <SCORE.INTRA.REPUL>
0

>  <SCORE.INTRA.REPUL.0>
0

>  <SCORE.INTRA.VDW>
0.480119

>  <SCORE.INTRA.VDW.0>
-0.709724

>  <SCORE.INTRA.norm>
-0.13262

>  <SCORE.RESTR>
0.180162

>  <SCORE.RESTR.CAVITY>
0.180162

>  <SCORE.RESTR.norm>
0.0180162

>  <SCORE.SYSTEM>
-15.5782

>  <SCORE.SYSTEM.CONST>
0

>  <SCORE.SYSTEM.DIHEDRAL>
0.437998

>  <SCORE.SYSTEM.POLAR>
-4.2683

>  <SCORE.SYSTEM.VDW>
-1.28499

>  <SCORE.SYSTEM.norm>
-1.55782

>  <SCORE.heavy>
10

>  <SCORE.norm>
-1.46756

$$$$

  rDOCK(R)          3D
libRbt.so/2013.1/901 2013/11/27
 14 14  0  0  0  0  0  0  0  0999 V2000
   31.0061   25.3802   23.0746 C   0  0  0  0  0  0
   30.8000   26.1286   21.9036 O   0  0  0  0  0  0
   32.3835   25.1338   23.2772 O   0  0  0  0  0  0
   32.6674   25.3869   24.6374 C   0  0  0  0  0  0
   33.4991   24.2389   25.2230 C   0  0  0  0  0  0
   34.7829   24.2282   24.6596 O   0  0  0  0  0  0
   31.3523   25.5765   25.3888 C   0  0  0  0  0  0
   31.4983   26.5000   26.4366 O   0  0  0  0  0  0
   30.4293   26.0746   24.3046 C   0  0  0  0  0  0
   30.5176   27.4726   24.1710 O   0  0  0  0  0  0
   29.8209   26.1616   21.7411 H   0  0  0  0  0  0
   34.6695   24.0077   23.6981 H   0  0  0  0  0  0
   32.1641   26.1111   27.0619 H   0  0  0  0  0  0
   29.9089   27.7274   23.4295 H   0  0  0  0  0  0
  1  2  1  0  0  0
  1  3  1  0  0  0
  3  4  1  0  0  0
  4  5  1  0  0  0
  5  6  1  0  0  0
  4  7  1  0  0  0
  7  8  1  0  0  0
  7  9  1  0  0  0
  9 10  1  0  0  0
  9  1  1  0  0  0
  2 11  1  0  0  0
  6 12  1  0  0  0
  8 13  1  0  0  0
 10 14  1  0  0  0
M  END
>  <CHROM.0>
174.13538158,-51.69673376,-60.90700727,8.13777988,65.75179377,174.78009730

>  <CHROM.1>
172.11032629,68.41983937,-65.99495479,-62.17938310,66.69567923,31.90785649
25.64114092,24.28342737,-2.88352391,-0.60468064,1.37471881

>  <Name>

>  <RI>
3.66253e+07

>  <Rbt.Current_Directory>
/extra/banzai2/j5wagner/CELPP/2016_10_17_rdock_implementation/normal_run/tutorialVideo/tutorial_rdock_implementation/full_week_run/4-docking/5m93/SMCSS_3tmp_docking

>  <Rbt.Executable>
rbdock ($Id: //depot/dev/client3/rdock/2013.1/src/exe/rbdock.cxx#4 $)

>  <Rbt.Library>
libRbt.so (2013.1, Build901 2013/11/27)

>  <Rbt.Parameter_File>
/home/j5wagner/env_00/source/rDock/rDock_2013.1_src//data/scripts/dock.prm

>  <Rbt.Receptor>
/extra/banzai2/j5wagner/CELPP/2016_10_17_rdock_implementation/normal_run/tutorialVideo/tutorial_rdock_implementation/full_week_run/4-docking/5m93/SMCSS_3tmp_tech_prep/rDockGridGenInput.prm

>  <SCORE>
-24.0756

>  <SCORE.INTER>
-8.08117

>  <SCORE.INTER.CONST>
1

>  <SCORE.INTER.POLAR>
-2.12462

>  <SCORE.INTER.REPUL>
0.0354486

>  <SCORE.INTER.ROT>
1

>  <SCORE.INTER.VDW>
-7.43472

>  <SCORE.INTER.norm>
-0.808117

>  <SCORE.INTRA>
-1.5714

>  <SCORE.INTRA.DIHEDRAL>
-3.71564

>  <SCORE.INTRA.DIHEDRAL.0>
5.02738

>  <SCORE.INTRA.POLAR>
0

>  <SCORE.INTRA.POLAR.0>
0

>  <SCORE.INTRA.REPUL>
0

>  <SCORE.INTRA.REPUL.0>
0

>  <SCORE.INTRA.VDW>
0.28642

>  <SCORE.INTRA.VDW.0>
-0.709724

>  <SCORE.INTRA.norm>
-0.15714

>  <SCORE.RESTR>
2.21388

>  <SCORE.RESTR.CAVITY>
2.21388

>  <SCORE.RESTR.norm>
0.221388

>  <SCORE.SYSTEM>
-16.6369

>  <SCORE.SYSTEM.CONST>
0

>  <SCORE.SYSTEM.DIHEDRAL>
0.724594

>  <SCORE.SYSTEM.POLAR>
-4.68315

>  <SCORE.SYSTEM.REPUL>
0.0134125

>  <SCORE.SYSTEM.VDW>
-1.14354

>  <SCORE.SYSTEM.norm>
-1.66369

>  <SCORE.heavy>
10

>  <SCORE.norm>
-2.40756

$$$$

  rDOCK(R)          3D
libRbt.so/2013.1/901 2013/11/27
 14 14  0  0  0  0  0  0  0  0999 V2000
   33.4184   25.4917   25.4112 C   0  0  0  0  0  0
   34.6041   26.1756   25.0943 O   0  0  0  0  0  0
   32.3546   25.9216   24.5851 O   0  0  0  0  0  0
   31.6667   24.7708   24.1409 C   0  0  0  0  0  0
   30.1549   24.9627   24.3147 C   0  0  0  0  0  0
   29.7434   26.1656   23.7238 O   0  0  0  0  0  0
   32.1786   23.5599   24.9165 C   0  0  0  0  0  0
   32.1553   22.4036   24.1199 O   0  0  0  0  0  0
   33.5801   23.9800   25.2837 C   0  0  0  0  0  0
   34.4864   23.6639   24.2548 O   0  0  0  0  0  0
   34.8010   25.9999   24.1370 H   0  0  0  0  0  0
   29.7018   26.0020   22.7453 H   0  0  0  0  0  0
   32.9207   22.4805   23.4924 H   0  0  0  0  0  0
   35.3695   24.0224   24.5323 H   0  0  0  0  0  0
  1  2  1  0  0  0
  1  3  1  0  0  0
  3  4  1  0  0  0
  4  5  1  0  0  0
  5  6  1  0  0  0
  4  7  1  0  0  0
  7  8  1  0  0  0
  7  9  1  0  0  0
  9 10  1  0  0  0
  9  1  1  0  0  0
  2 11  1  0  0  0
  6 12  1  0  0  0
  8 13  1  0  0  0
 10 14  1  0  0  0
M  END
>  <CHROM.0>
171.70885281,-169.54519757,60.16995831,0.16908011,65.38584645,66.84347233

>  <CHROM.1>
-58.47966362,51.91711111,77.73053221,75.41810011,64.35434098,32.46273230
24.72454994,24.53692225,-0.20991420,-0.23163407,0.09825426

>  <Name>

>  <RI>
3.66253e+07

>  <Rbt.Current_Directory>
/extra/banzai2/j5wagner/CELPP/2016_10_17_rdock_implementation/normal_run/tutorialVideo/tutorial_rdock_implementation/full_week_run/4-docking/5m93/SMCSS_3tmp_docking

>  <Rbt.Executable>
rbdock ($Id: //depot/dev/client3/rdock/2013.1/src/exe/rbdock.cxx#4 $)

>  <Rbt.Library>
libRbt.so (2013.1, Build901 2013/11/27)

>  <Rbt.Parameter_File>
/home/j5wagner/env_00/source/rDock/rDock_2013.1_src//data/scripts/dock.prm

>  <Rbt.Receptor>
/extra/banzai2/j5wagner/CELPP/2016_10_17_rdock_implementation/normal_run/tutorialVideo/tutorial_rdock_implementation/full_week_run/4-docking/5m93/SMCSS_3tmp_tech_prep/rDockGridGenInput.prm

>  <SCORE>
-23.5315

>  <SCORE.INTER>
-7.41589

>  <SCORE.INTER.CONST>
1

>  <SCORE.INTER.POLAR>
-2.20418

>  <SCORE.INTER.REPUL>
0.01577

>  <SCORE.INTER.ROT>
1

>  <SCORE.INTER.VDW>
-6.40054

>  <SCORE.INTER.norm>
-0.741589

>  <SCORE.INTRA>
-1.10899

>  <SCORE.INTRA.DIHEDRAL>
-1.81697

>  <SCORE.INTRA.DIHEDRAL.0>
5.02738

>  <SCORE.INTRA.POLAR>
-0.256537

>  <SCORE.INTRA.POLAR.0>
0

>  <SCORE.INTRA.REPUL>
0

>  <SCORE.INTRA.REPUL.0>
0

>  <SCORE.INTRA.VDW>
0.671725

>  <SCORE.INTRA.VDW.0>
-0.709724

>  <SCORE.INTRA.norm>
-0.110899

>  <SCORE.RESTR>
2.09343

>  <SCORE.RESTR.CAVITY>
2.09343

>  <SCORE.RESTR.norm>
0.209343

>  <SCORE.SYSTEM>
-17.1

>  <SCORE.SYSTEM.CONST>
0

>  <SCORE.SYSTEM.DIHEDRAL>
0.970363

>  <SCORE.SYSTEM.POLAR>
-4.6266

>  <SCORE.SYSTEM.VDW>
-1.85479

>  <SCORE.SYSTEM.norm>
-1.71

>  <SCORE.heavy>
10

>  <SCORE.norm>
-2.35315

$$$$

  rDOCK(R)          3D
libRbt.so/2013.1/901 2013/11/27
 14 14  0  0  0  0  0  0  0  0999 V2000
   30.0604   25.7463   21.7970 C   0  0  0  0  0  0
   30.3059   26.3388   20.5470 O   0  0  0  0  0  0
   31.0350   24.7641   22.0873 O   0  0  0  0  0  0
   31.4446   24.9511   23.4259 C   0  0  0  0  0  0
   31.4573   23.6068   24.1642 C   0  0  0  0  0  0
   32.2677   22.6846   23.4873 O   0  0  0  0  0  0
   30.5092   25.9566   24.0922 C   0  0  0  0  0  0
   31.1937   26.7282   25.0452 O   0  0  0  0  0  0
   30.0296   26.7775   22.9211 C   0  0  0  0  0  0
   30.9187   27.8335   22.6487 O   0  0  0  0  0  0
   30.8956   27.1228   20.7010 H   0  0  0  0  0  0
   32.3743   21.9032   24.0906 H   0  0  0  0  0  0
   30.5065   27.2734   25.5099 H   0  0  0  0  0  0
   30.9638   28.3879   23.4709 H   0  0  0  0  0  0
  1  2  1  0  0  0
  1  3  1  0  0  0
  3  4  1  0  0  0
  4  5  1  0  0  0
  5  6  1  0  0  0
  4  7  1  0  0  0
  7  8  1  0  0  0
  7  9  1  0  0  0
  9 10  1  0  0  0
  9  1  1  0  0  0
  2 11  1  0  0  0
  6 12  1  0  0  0
  8 13  1  0  0  0
 10 14  1  0  0  0
M  END
>  <CHROM.0>
175.36976631,-52.25907354,63.37800836,6.91697430,66.27490734,-55.66985198

>  <CHROM.1>
-90.07801730,55.66485027,169.60717731,-173.19564522,-171.05247509,30.95489657
25.55577752,23.01493160,2.93151423,-1.22764615,0.94345079

>  <Name>

>  <RI>
3.66253e+07

>  <Rbt.Current_Directory>
/extra/banzai2/j5wagner/CELPP/2016_10_17_rdock_implementation/normal_run/tutorialVideo/tutorial_rdock_implementation/full_week_run/4-docking/5m93/SMCSS_3tmp_docking

>  <Rbt.Executable>
rbdock ($Id: //depot/dev/client3/rdock/2013.1/src/exe/rbdock.cxx#4 $)

>  <Rbt.Library>
libRbt.so (2013.1, Build901 2013/11/27)

>  <Rbt.Parameter_File>
/home/j5wagner/env_00/source/rDock/rDock_2013.1_src//data/scripts/dock.prm

>  <Rbt.Receptor>
/extra/banzai2/j5wagner/CELPP/2016_10_17_rdock_implementation/normal_run/tutorialVideo/tutorial_rdock_implementation/full_week_run/4-docking/5m93/SMCSS_3tmp_tech_prep/rDockGridGenInput.prm

>  <SCORE>
-8.04849

>  <SCORE.INTER>
9.00346

>  <SCORE.INTER.CONST>
1

>  <SCORE.INTER.POLAR>
-2.66614

>  <SCORE.INTER.REPUL>
0.284088

>  <SCORE.INTER.ROT>
1

>  <SCORE.INTER.VDW>
10.2479

>  <SCORE.INTER.norm>
0.900346

>  <SCORE.INTRA>
-0.37047

>  <SCORE.INTRA.DIHEDRAL>
0.0973089

>  <SCORE.INTRA.DIHEDRAL.0>
5.02738

>  <SCORE.INTRA.POLAR>
-0.300467

>  <SCORE.INTRA.POLAR.0>
0

>  <SCORE.INTRA.REPUL>
0

>  <SCORE.INTRA.REPUL.0>
0

>  <SCORE.INTRA.VDW>
0.602464

>  <SCORE.INTRA.VDW.0>
-0.709724

>  <SCORE.INTRA.norm>
-0.037047

>  <SCORE.RESTR>
0.0531991

>  <SCORE.RESTR.CAVITY>
0.0531991

>  <SCORE.RESTR.norm>
0.00531991

>  <SCORE.SYSTEM>
-16.7347

>  <SCORE.SYSTEM.CONST>
0

>  <SCORE.SYSTEM.DIHEDRAL>
0.629699

>  <SCORE.SYSTEM.POLAR>
-4.67524

>  <SCORE.SYSTEM.VDW>
-1.1537

>  <SCORE.SYSTEM.norm>
-1.67347

>  <SCORE.heavy>
10

>  <SCORE.norm>
-0.804849

$$$$

  rDOCK(R)          3D
libRbt.so/2013.1/901 2013/11/27
 14 14  0  0  0  0  0  0  0  0999 V2000
   32.6683   25.2941   24.2640 C   0  0  0  0  0  0
   33.8211   24.6995   23.7241 O   0  0  0  0  0  0
   32.1017   26.2119   23.3500 O   0  0  0  0  0  0
   30.7074   25.9874   23.3280 C   0  0  0  0  0  0
   29.9587   27.3214   23.4391 C   0  0  0  0  0  0
   29.4387   27.6958   22.1922 O   0  0  0  0  0  0
   30.3432   25.0350   24.4638 C   0  0  0  0  0  0
   29.2613   24.2138   24.1066 O   0  0  0  0  0  0
   31.6207   24.2561   24.6551 C   0  0  0  0  0  0
   31.6710   23.1502   23.7866 O   0  0  0  0  0  0
   34.4692   25.4275   23.5340 H   0  0  0  0  0  0
   28.6677   28.2945   22.3738 H   0  0  0  0  0  0
   28.5035   24.8219   23.9033 H   0  0  0  0  0  0
   32.5847   22.7695   23.8619 H   0  0  0  0  0  0
  1  2  1  0  0  0
  1  3  1  0  0  0
  3  4  1  0  0  0
  4  5  1  0  0  0
  5  6  1  0  0  0
  4  7  1  0  0  0
  7  8  1  0  0  0
  7  9  1  0  0  0
  9 10  1  0  0  0
  9  1  1  0  0  0
  2 11  1  0  0  0
  6 12  1  0  0  0
  8 13  1  0  0  0
 10 14  1  0  0  0
M  END
>  <CHROM.0>
176.02715256,-49.30957497,-177.95576524,4.67134226,-60.91406190,64.34195780

>  <CHROM.1>
60.13598320,104.34025027,155.46197473,-59.54871336,59.65993691,31.15828735
25.37886313,23.69087647,-0.80648787,0.00244243,-0.37097100

>  <Name>

>  <RI>
3.66253e+07

>  <Rbt.Current_Directory>
/extra/banzai2/j5wagner/CELPP/2016_10_17_rdock_implementation/normal_run/tutorialVideo/tutorial_rdock_implementation/full_week_run/4-docking/5m93/SMCSS_3tmp_docking

>  <Rbt.Executable>
rbdock ($Id: //depot/dev/client3/rdock/2013.1/src/exe/rbdock.cxx#4 $)

>  <Rbt.Library>
libRbt.so (2013.1, Build901 2013/11/27)

>  <Rbt.Parameter_File>
/home/j5wagner/env_00/source/rDock/rDock_2013.1_src//data/scripts/dock.prm

>  <Rbt.Receptor>
/extra/banzai2/j5wagner/CELPP/2016_10_17_rdock_implementation/normal_run/tutorialVideo/tutorial_rdock_implementation/full_week_run/4-docking/5m93/SMCSS_3tmp_tech_prep/rDockGridGenInput.prm

>  <SCORE>
-25.6562

>  <SCORE.INTER>
-11.2124

>  <SCORE.INTER.CONST>
1

>  <SCORE.INTER.POLAR>
-3.29119

>  <SCORE.INTER.REPUL>
0.669885

>  <SCORE.INTER.ROT>
1

>  <SCORE.INTER.VDW>
-9.77175

>  <SCORE.INTER.norm>
-1.12124

>  <SCORE.INTRA>
1.39524

>  <SCORE.INTRA.DIHEDRAL>
2.34676

>  <SCORE.INTRA.DIHEDRAL.0>
5.02738

>  <SCORE.INTRA.POLAR>
0

>  <SCORE.INTRA.POLAR.0>
0

>  <SCORE.INTRA.REPUL>
0

>  <SCORE.INTRA.REPUL.0>
0

>  <SCORE.INTRA.VDW>
0.221857

>  <SCORE.INTRA.VDW.0>
-0.709724

>  <SCORE.INTRA.norm>
0.139524

>  <SCORE.RESTR>
0.474992

>  <SCORE.RESTR.CAVITY>
0.474992

>  <SCORE.RESTR.norm>
0.0474992

>  <SCORE.SYSTEM>
-16.314

>  <SCORE.SYSTEM.CONST>
0

>  <SCORE.SYSTEM.DIHEDRAL>
0.489516

>  <SCORE.SYSTEM.POLAR>
-4.33976

>  <SCORE.SYSTEM.VDW>
-1.8036

>  <SCORE.SYSTEM.norm>
-1.6314

>  <SCORE.heavy>
10

>  <SCORE.norm>
-2.56562

$$$$

  rDOCK(R)          3D
libRbt.so/2013.1/901 2013/11/27
 14 14  0  0  0  0  0  0  0  0999 V2000
   30.5518   25.4062   22.1894 C   0  0  0  0  0  0
   30.6283   26.1465   20.9977 O   0  0  0  0  0  0
   31.6881   24.5784   22.3402 O   0  0  0  0  0  0
   32.1348   24.7047   23.6741 C   0  0  0  0  0  0
   32.4071   23.3181   24.2704 C   0  0  0  0  0  0
   31.3805   22.4275   23.9263 O   0  0  0  0  0  0
   31.0860   25.4718   24.4750 C   0  0  0  0  0  0
   31.6869   26.2541   25.4746 O   0  0  0  0  0  0
   30.4153   26.3072   23.4131 C   0  0  0  0  0  0
   31.1039   27.5183   23.2157 O   0  0  0  0  0  0
   29.7915   26.6759   20.9232 H   0  0  0  0  0  0
   31.5606   21.5830   24.4165 H   0  0  0  0  0  0
   30.9459   26.6685   25.9891 H   0  0  0  0  0  0
   30.8194   28.1303   23.9435 H   0  0  0  0  0  0
  1  2  1  0  0  0
  1  3  1  0  0  0
  3  4  1  0  0  0
  4  5  1  0  0  0
  5  6  1  0  0  0
  4  7  1  0  0  0
  7  8  1  0  0  0
  7  9  1  0  0  0
  9 10  1  0  0  0
  9  1  1  0  0  0
  2 11  1  0  0  0
  6 12  1  0  0  0
  8 13  1  0  0  0
 10 14  1  0  0  0
M  END
>  <CHROM.0>
175.61339760,-69.01435796,60.73085870,6.82299086,67.19654042,65.61910941

>  <CHROM.1>
177.50600645,-43.39878007,-174.09316657,-176.10430125,167.92488644,31.30037430
25.23240010,23.39427661,2.70357571,-1.26667883,0.68457864

>  <Name>

>  <RI>
3.66253e+07

>  <Rbt.Current_Directory>
/extra/banzai2/j5wagner/CELPP/2016_10_17_rdock_implementation/normal_run/tutorialVideo/tutorial_rdock_implementation/full_week_run/4-docking/5m93/SMCSS_3tmp_docking

>  <Rbt.Executable>
rbdock ($Id: //depot/dev/client3/rdock/2013.1/src/exe/rbdock.cxx#4 $)

>  <Rbt.Library>
libRbt.so (2013.1, Build901 2013/11/27)

>  <Rbt.Parameter_File>
/home/j5wagner/env_00/source/rDock/rDock_2013.1_src//data/scripts/dock.prm

>  <Rbt.Receptor>
/extra/banzai2/j5wagner/CELPP/2016_10_17_rdock_implementation/normal_run/tutorialVideo/tutorial_rdock_implementation/full_week_run/4-docking/5m93/SMCSS_3tmp_tech_prep/rDockGridGenInput.prm

>  <SCORE>
-14.7087

>  <SCORE.INTER>
1.7981

>  <SCORE.INTER.CONST>
1

>  <SCORE.INTER.POLAR>
-2.50176

>  <SCORE.INTER.REPUL>
0.145751

>  <SCORE.INTER.ROT>
1

>  <SCORE.INTER.VDW>
3.17532

>  <SCORE.INTER.norm>
0.17981

>  <SCORE.INTRA>
-1.26754

>  <SCORE.INTRA.DIHEDRAL>
-2.8137

>  <SCORE.INTRA.DIHEDRAL.0>
5.02738

>  <SCORE.INTRA.POLAR>
0

>  <SCORE.INTRA.POLAR.0>
0

>  <SCORE.INTRA.REPUL>
0

>  <SCORE.INTRA.REPUL.0>
0

>  <SCORE.INTRA.VDW>
0.139308

>  <SCORE.INTRA.VDW.0>
-0.709724

>  <SCORE.INTRA.norm>
-0.126754

>  <SCORE.RESTR>
0.374738

>  <SCORE.RESTR.CAVITY>
0.374738

>  <SCORE.RESTR.norm>
0.0374738

>  <SCORE.SYSTEM>
-15.6139

>  <SCORE.SYSTEM.CONST>
0

>  <SCORE.SYSTEM.DIHEDRAL>
0.763722

>  <SCORE.SYSTEM.POLAR>
-4.18843

>  <SCORE.SYSTEM.VDW>
-1.75514

>  <SCORE.SYSTEM.norm>
-1.56139

>  <SCORE.heavy>
10

>  <SCORE.norm>
-1.47087

$$$$

  rDOCK(R)          3D
libRbt.so/2013.1/901 2013/11/27
 14 14  0  0  0  0  0  0  0  0999 V2000
   30.4660   24.2639   24.4502 C   0  0  0  0  0  0
   31.3222   23.1518   24.5144 O   0  0  0  0  0  0
   30.8926   25.2780   25.3382 O   0  0  0  0  0  0
   30.8329   26.5066   24.6442 C   0  0  0  0  0  0
   30.1394   27.5659   25.5099 C   0  0  0  0  0  0
   30.3582   27.3059   26.8700 O   0  0  0  0  0  0
   30.1057   26.2901   23.3197 C   0  0  0  0  0  0
   30.6159   27.1342   22.3199 O   0  0  0  0  0  0
   30.3745   24.8329   23.0376 C   0  0  0  0  0  0
   31.5953   24.6685   22.3575 O   0  0  0  0  0  0
   32.2314   23.4626   24.2635 H   0  0  0  0  0  0
   31.3382   27.1938   26.9839 H   0  0  0  0  0  0
   30.1144   26.9204   21.4903 H   0  0  0  0  0  0
   31.4097   24.8274   21.3954 H   0  0  0  0  0  0
  1  2  1  0  0  0
  1  3  1  0  0  0
  3  4  1  0  0  0
  4  5  1  0  0  0
  5  6  1  0  0  0
  4  7  1  0  0  0
  7  8  1  0  0  0
  7  9  1  0  0  0
  9 10  1  0  0  0
  9  1  1  0  0  0
  2 11  1  0  0  0
  6 12  1  0  0  0
  8 13  1  0  0  0
 10 14  1  0  0  0
M  END
>  <CHROM.0>
-63.83628485,-171.98789244,-178.89170612,7.32015065,67.04229384,65.28335839

>  <CHROM.1>
-59.84741416,29.77739046,51.46663834,178.54827134,165.30284653,30.71134930
25.69056595,24.23017674,-0.63344795,-1.35092713,1.74070134

>  <Name>

>  <RI>
3.66253e+07

>  <Rbt.Current_Directory>
/extra/banzai2/j5wagner/CELPP/2016_10_17_rdock_implementation/normal_run/tutorialVideo/tutorial_rdock_implementation/full_week_run/4-docking/5m93/SMCSS_3tmp_docking

>  <Rbt.Executable>
rbdock ($Id: //depot/dev/client3/rdock/2013.1/src/exe/rbdock.cxx#4 $)

>  <Rbt.Library>
libRbt.so (2013.1, Build901 2013/11/27)

>  <Rbt.Parameter_File>
/home/j5wagner/env_00/source/rDock/rDock_2013.1_src//data/scripts/dock.prm

>  <Rbt.Receptor>
/extra/banzai2/j5wagner/CELPP/2016_10_17_rdock_implementation/normal_run/tutorialVideo/tutorial_rdock_implementation/full_week_run/4-docking/5m93/SMCSS_3tmp_tech_prep/rDockGridGenInput.prm

>  <SCORE>
-0.214724

>  <SCORE.INTER>
15.0031

>  <SCORE.INTER.CONST>
1

>  <SCORE.INTER.POLAR>
-1.969

>  <SCORE.INTER.REPUL>
0.107563

>  <SCORE.INTER.ROT>
1

>  <SCORE.INTER.VDW>
14.7598

>  <SCORE.INTER.norm>
1.50031

>  <SCORE.INTRA>
0.252377

>  <SCORE.INTRA.DIHEDRAL>
-0.679722

>  <SCORE.INTRA.DIHEDRAL.0>
5.02738

>  <SCORE.INTRA.POLAR>
0

>  <SCORE.INTRA.POLAR.0>
0

>  <SCORE.INTRA.REPUL>
0

>  <SCORE.INTRA.REPUL.0>
0

>  <SCORE.INTRA.VDW>
0.592238

>  <SCORE.INTRA.VDW.0>
-0.709724

>  <SCORE.INTRA.norm>
0.0252377

>  <SCORE.RESTR>
0.340365

>  <SCORE.RESTR.CAVITY>
0.340365

>  <SCORE.RESTR.norm>
0.0340365

>  <SCORE.SYSTEM>
-15.8105

>  <SCORE.SYSTEM.CONST>
0

>  <SCORE.SYSTEM.DIHEDRAL>
0.684024

>  <SCORE.SYSTEM.POLAR>
-4.60614

>  <SCORE.SYSTEM.VDW>
-0.491666

>  <SCORE.SYSTEM.norm>
-1.58105

>  <SCORE.heavy>
10

>  <SCORE.norm>
-0.0214724

$$$$

  rDOCK(R)          3D
libRbt.so/2013.1/901 2013/11/27
 14 14  0  0  0  0  0  0  0  0999 V2000
   31.1504   25.1420   23.6469 C   0  0  0  0  0  0
   32.3094   24.5829   23.0827 O   0  0  0  0  0  0
   31.4778   26.2174   24.5044 O   0  0  0  0  0  0
   30.5887   27.2771   24.2192 C   0  0  0  0  0  0
   30.0186   27.8498   25.5229 C   0  0  0  0  0  0
   30.9492   27.7181   26.5632 O   0  0  0  0  0  0
   29.4880   26.7625   23.2954 C   0  0  0  0  0  0
   29.0564   27.7683   22.4154 O   0  0  0  0  0  0
   30.1719   25.6241   22.5802 C   0  0  0  0  0  0
   30.8643   26.0857   21.4455 O   0  0  0  0  0  0
   32.0187   23.8915   22.4320 H   0  0  0  0  0  0
   30.5044   28.0505   27.3863 H   0  0  0  0  0  0
   28.4720   28.3715   22.9447 H   0  0  0  0  0  0
   30.2009   26.1409   20.7092 H   0  0  0  0  0  0
  1  2  1  0  0  0
  1  3  1  0  0  0
  3  4  1  0  0  0
  4  5  1  0  0  0
  5  6  1  0  0  0
  4  7  1  0  0  0
  7  8  1  0  0  0
  7  9  1  0  0  0
  9 10  1  0  0  0
  9  1  1  0  0  0
  2 11  1  0  0  0
  6 12  1  0  0  0
  8 13  1  0  0  0
 10 14  1  0  0  0
M  END
>  <CHROM.0>
176.05071312,-171.57150145,-176.59481355,8.40671621,63.87472273,63.95162681

>  <CHROM.1>
-175.03302330,30.62759017,-176.47902970,-76.80001870,164.43715750,30.62740378
26.51200135,23.71753632,-1.41737294,-0.77369196,1.13654484

>  <Name>

>  <RI>
3.66253e+07

>  <Rbt.Current_Directory>
/extra/banzai2/j5wagner/CELPP/2016_10_17_rdock_implementation/normal_run/tutorialVideo/tutorial_rdock_implementation/full_week_run/4-docking/5m93/SMCSS_3tmp_docking

>  <Rbt.Executable>
rbdock ($Id: //depot/dev/client3/rdock/2013.1/src/exe/rbdock.cxx#4 $)

>  <Rbt.Library>
libRbt.so (2013.1, Build901 2013/11/27)

>  <Rbt.Parameter_File>
/home/j5wagner/env_00/source/rDock/rDock_2013.1_src//data/scripts/dock.prm

>  <Rbt.Receptor>
/extra/banzai2/j5wagner/CELPP/2016_10_17_rdock_implementation/normal_run/tutorialVideo/tutorial_rdock_implementation/full_week_run/4-docking/5m93/SMCSS_3tmp_tech_prep/rDockGridGenInput.prm

>  <SCORE>
1.89963

>  <SCORE.INTER>
18.3822

>  <SCORE.INTER.CONST>
1

>  <SCORE.INTER.POLAR>
-2.25341

>  <SCORE.INTER.REPUL>
0.0429321

>  <SCORE.INTER.ROT>
1

>  <SCORE.INTER.VDW>
19.4292

>  <SCORE.INTER.norm>
1.83822

>  <SCORE.INTRA>
0.592997

>  <SCORE.INTRA.DIHEDRAL>
0.39382

>  <SCORE.INTRA.DIHEDRAL.0>
5.02738

>  <SCORE.INTRA.POLAR>
0

>  <SCORE.INTRA.POLAR.0>
0

>  <SCORE.INTRA.REPUL>
0

>  <SCORE.INTRA.REPUL.0>
0

>  <SCORE.INTRA.VDW>
0.396087

>  <SCORE.INTRA.VDW.0>
-0.709724

>  <SCORE.INTRA.norm>
0.0592997

>  <SCORE.RESTR>
0

>  <SCORE.RESTR.CAVITY>
0

>  <SCORE.RESTR.norm>
0

>  <SCORE.SYSTEM>
-17.0756

>  <SCORE.SYSTEM.CONST>
0

>  <SCORE.SYSTEM.DIHEDRAL>
0.525715

>  <SCORE.SYSTEM.POLAR>
-4.59633

>  <SCORE.SYSTEM.VDW>
-1.71094

>  <SCORE.SYSTEM.norm>
-1.70756

>  <SCORE.heavy>
10

>  <SCORE.norm>
0.189963

$$$$

  rDOCK(R)          3D
libRbt.so/2013.1/901 2013/11/27
 14 14  0  0  0  0  0  0  0  0999 V2000
   30.1048   26.0570   21.9273 C   0  0  0  0  0  0
   30.4754   26.7322   20.7523 O   0  0  0  0  0  0
   31.0083   25.0067   22.2092 O   0  0  0  0  0  0
   31.3180   25.0674   23.5859 C   0  0  0  0  0  0
   31.2117   23.6705   24.2103 C   0  0  0  0  0  0
   32.0769   22.7778   23.5621 O   0  0  0  0  0  0
   30.3782   26.0639   24.2594 C   0  0  0  0  0  0
   31.0183   26.7228   25.3216 O   0  0  0  0  0  0
   30.0307   26.9973   23.1265 C   0  0  0  0  0  0
   30.9849   28.0248   23.0099 O   0  0  0  0  0  0
   30.2402   26.1456   19.9863 H   0  0  0  0  0  0
   32.1064   21.9559   24.1185 H   0  0  0  0  0  0
   30.3281   27.2880   25.7571 H   0  0  0  0  0  0
   31.0038   28.4971   23.8828 H   0  0  0  0  0  0
  1  2  1  0  0  0
  1  3  1  0  0  0
  3  4  1  0  0  0
  4  5  1  0  0  0
  5  6  1  0  0  0
  4  7  1  0  0  0
  7  8  1  0  0  0
  7  9  1  0  0  0
  9 10  1  0  0  0
  9  1  1  0  0  0
  2 11  1  0  0  0
  6 12  1  0  0  0
  8 13  1  0  0  0
 10 14  1  0  0  0
M  END
>  <CHROM.0>
174.49136960,-60.33190467,62.60123635,2.54455644,68.08487547,175.65883129

>  <CHROM.1>
74.41086088,58.33475951,168.53930309,-175.07110444,-169.79289987,30.88967888
25.71927516,23.18730301,3.07396749,-1.29609107,1.14022434

>  <Name>

>  <RI>
3.66253e+07

>  <Rbt.Current_Directory>
/extra/banzai2/j5wagner/CELPP/2016_10_17_rdock_implementation/normal_run/tutorialVideo/tutorial_rdock_implementation/full_week_run/4-docking/5m93/SMCSS_3tmp_docking

>  <Rbt.Executable>
rbdock ($Id: //depot/dev/client3/rdock/2013.1/src/exe/rbdock.cxx#4 $)

>  <Rbt.Library>
libRbt.so (2013.1, Build901 2013/11/27)

>  <Rbt.Parameter_File>
/home/j5wagner/env_00/source/rDock/rDock_2013.1_src//data/scripts/dock.prm

>  <Rbt.Receptor>
/extra/banzai2/j5wagner/CELPP/2016_10_17_rdock_implementation/normal_run/tutorialVideo/tutorial_rdock_implementation/full_week_run/4-docking/5m93/SMCSS_3tmp_tech_prep/rDockGridGenInput.prm

>  <SCORE>
-14.8825

>  <SCORE.INTER>
1.76972

>  <SCORE.INTER.CONST>
1

>  <SCORE.INTER.POLAR>
-3.12621

>  <SCORE.INTER.REPUL>
0.397317

>  <SCORE.INTER.ROT>
1

>  <SCORE.INTER.VDW>
4.01226

>  <SCORE.INTER.norm>
0.176972

>  <SCORE.INTRA>
-1.057

>  <SCORE.INTRA.DIHEDRAL>
-2.47201

>  <SCORE.INTRA.DIHEDRAL.0>
5.02738

>  <SCORE.INTRA.POLAR>
0

>  <SCORE.INTRA.POLAR.0>
0

>  <SCORE.INTRA.REPUL>
0

>  <SCORE.INTRA.REPUL.0>
0

>  <SCORE.INTRA.VDW>
0.179003

>  <SCORE.INTRA.VDW.0>
-0.709724

>  <SCORE.INTRA.norm>
-0.1057

>  <SCORE.RESTR>
0.113945

>  <SCORE.RESTR.CAVITY>
0.113945

>  <SCORE.RESTR.norm>
0.0113945

>  <SCORE.SYSTEM>
-15.7091

>  <SCORE.SYSTEM.CONST>
0

>  <SCORE.SYSTEM.DIHEDRAL>
0.585732

>  <SCORE.SYSTEM.POLAR>
-4.39446

>  <SCORE.SYSTEM.REPUL>
0.0134125

>  <SCORE.SYSTEM.VDW>
-1.1279

>  <SCORE.SYSTEM.norm>
-1.57091

>  <SCORE.heavy>
10

>  <SCORE.norm>
-1.48825

$$$$

  rDOCK(R)          3D
libRbt.so/2013.1/901 2013/11/27
 14 14  0  0  0  0  0  0  0  0999 V2000
   31.2680   25.9944   23.6397 C   0  0  0  0  0  0
   30.0326   26.5303   24.0405 O   0  0  0  0  0  0
   32.2118   26.0682   24.6899 O   0  0  0  0  0  0
   32.8765   24.8238   24.7553 C   0  0  0  0  0  0
   34.3916   25.0419   24.8515 C   0  0  0  0  0  0
   34.7616   26.2110   24.1720 O   0  0  0  0  0  0
   32.4981   23.9974   23.5290 C   0  0  0  0  0  0
   32.4613   22.6273   23.8353 O   0  0  0  0  0  0
   31.1384   24.5467   23.1757 C   0  0  0  0  0  0
   30.1257   23.8851   23.8944 O   0  0  0  0  0  0
   29.3878   26.3739   23.3016 H   0  0  0  0  0  0
   34.5327   26.0690   23.2163 H   0  0  0  0  0  0
   31.7624   22.5147   24.5313 H   0  0  0  0  0  0
   29.2730   24.3421   23.6723 H   0  0  0  0  0  0
  1  2  1  0  0  0
  1  3  1  0  0  0
  3  4  1  0  0  0
  4  5  1  0  0  0
  5  6  1  0  0  0
  4  7  1  0  0  0
  7  8  1  0  0  0
  7  9  1  0  0  0
  9 10  1  0  0  0
  9  1  1  0  0  0
  2 11  1  0  0  0
  6 12  1  0  0  0
  8 13  1  0  0  0
 10 14  1  0  0  0
M  END
>  <CHROM.0>
-63.80806260,71.90176043,-58.04692275,11.30424560,67.97579683,-53.19904049

>  <CHROM.1>
-174.63048622,-31.27733870,-62.94591747,61.39377144,63.71356788,32.14064908
24.97820813,24.06026414,2.99623972,0.15717454,-3.02091344

>  <Name>

>  <RI>
3.66253e+07

>  <Rbt.Current_Directory>
/extra/banzai2/j5wagner/CELPP/2016_10_17_rdock_implementation/normal_run/tutorialVideo/tutorial_rdock_implementation/full_week_run/4-docking/5m93/SMCSS_3tmp_docking

>  <Rbt.Executable>
rbdock ($Id: //depot/dev/client3/rdock/2013.1/src/exe/rbdock.cxx#4 $)

>  <Rbt.Library>
libRbt.so (2013.1, Build901 2013/11/27)

>  <Rbt.Parameter_File>
/home/j5wagner/env_00/source/rDock/rDock_2013.1_src//data/scripts/dock.prm

>  <Rbt.Receptor>
/extra/banzai2/j5wagner/CELPP/2016_10_17_rdock_implementation/normal_run/tutorialVideo/tutorial_rdock_implementation/full_week_run/4-docking/5m93/SMCSS_3tmp_tech_prep/rDockGridGenInput.prm

>  <SCORE>
-24.3059

>  <SCORE.INTER>
-9.58087

>  <SCORE.INTER.CONST>
1

>  <SCORE.INTER.POLAR>
-2.1987

>  <SCORE.INTER.REPUL>
0.0100378

>  <SCORE.INTER.ROT>
1

>  <SCORE.INTER.VDW>
-8.55549

>  <SCORE.INTER.norm>
-0.958087

>  <SCORE.INTRA>
-0.432967

>  <SCORE.INTRA.DIHEDRAL>
-1.96015

>  <SCORE.INTRA.DIHEDRAL.0>
5.02738

>  <SCORE.INTRA.POLAR>
-0.0670248

>  <SCORE.INTRA.POLAR.0>
0

>  <SCORE.INTRA.REPUL>
0

>  <SCORE.INTRA.REPUL.0>
0

>  <SCORE.INTRA.VDW>
0.774992

>  <SCORE.INTRA.VDW.0>
-0.709724

>  <SCORE.INTRA.norm>
-0.0432967

>  <SCORE.RESTR>
0.858402

>  <SCORE.RESTR.CAVITY>
0.858402

>  <SCORE.RESTR.norm>
0.0858402

>  <SCORE.SYSTEM>
-15.1505

>  <SCORE.SYSTEM.CONST>
0

>  <SCORE.SYSTEM.DIHEDRAL>
1.13088

>  <SCORE.SYSTEM.POLAR>
-4.65135

>  <SCORE.SYSTEM.VDW>
0.0986429

>  <SCORE.SYSTEM.norm>
-1.51505

>  <SCORE.heavy>
10

>  <SCORE.norm>
-2.43059

$$$$

  rDOCK(R)          3D
libRbt.so/2013.1/901 2013/11/27
 14 14  0  0  0  0  0  0  0  0999 V2000
   30.2206   26.6723   24.9533 C   0  0  0  0  0  0
   30.5241   27.6632   25.9020 O   0  0  0  0  0  0
   30.1899   27.2179   23.6494 O   0  0  0  0  0  0
   30.8976   26.3379   22.8012 C   0  0  0  0  0  0
   30.0896   26.0760   21.5241 C   0  0  0  0  0  0
   30.2268   27.1472   20.6301 O   0  0  0  0  0  0
   31.1908   25.0480   23.5627 C   0  0  0  0  0  0
   32.4142   24.4897   23.1578 O   0  0  0  0  0  0
   31.2166   25.5173   24.9961 C   0  0  0  0  0  0
   32.4969   25.9804   25.3513 O   0  0  0  0  0  0
   29.8397   28.3774   25.8142 H   0  0  0  0  0  0
   29.7858   26.8702   19.7847 H   0  0  0  0  0  0
   32.5008   23.6259   23.6394 H   0  0  0  0  0  0
   32.4264   26.3326   26.2767 H   0  0  0  0  0  0
  1  2  1  0  0  0
  1  3  1  0  0  0
  3  4  1  0  0  0
  4  5  1  0  0  0
  5  6  1  0  0  0
  4  7  1  0  0  0
  7  8  1  0  0  0
  7  9  1  0  0  0
  9 10  1  0  0  0
  9  1  1  0  0  0
  2 11  1  0  0  0
  6 12  1  0  0  0
  8 13  1  0  0  0
 10 14  1  0  0  0
M  END
>  <CHROM.0>
172.21795053,21.94445829,59.24976267,126.39840121,65.34065266,61.72639054

>  <CHROM.1>
57.44398543,79.29165336,172.70765985,-175.66320755,64.20434729,30.96832224
26.24463017,23.65305203,1.19810835,-0.88016358,1.29955867

>  <Name>

>  <RI>
3.66253e+07

>  <Rbt.Current_Directory>
/extra/banzai2/j5wagner/CELPP/2016_10_17_rdock_implementation/normal_run/tutorialVideo/tutorial_rdock_implementation/full_week_run/4-docking/5m93/SMCSS_3tmp_docking

>  <Rbt.Executable>
rbdock ($Id: //depot/dev/client3/rdock/2013.1/src/exe/rbdock.cxx#4 $)

>  <Rbt.Library>
libRbt.so (2013.1, Build901 2013/11/27)

>  <Rbt.Parameter_File>
/home/j5wagner/env_00/source/rDock/rDock_2013.1_src//data/scripts/dock.prm

>  <Rbt.Receptor>
/extra/banzai2/j5wagner/CELPP/2016_10_17_rdock_implementation/normal_run/tutorialVideo/tutorial_rdock_implementation/full_week_run/4-docking/5m93/SMCSS_3tmp_tech_prep/rDockGridGenInput.prm

>  <SCORE>
-6.9486

>  <SCORE.INTER>
4.74133

>  <SCORE.INTER.CONST>
1

>  <SCORE.INTER.POLAR>
-2.20405

>  <SCORE.INTER.REPUL>
0.0769425

>  <SCORE.INTER.ROT>
1

>  <SCORE.INTER.VDW>
5.45039

>  <SCORE.INTER.norm>
0.474133

>  <SCORE.INTRA>
-1.36815

>  <SCORE.INTRA.DIHEDRAL>
-2.97904

>  <SCORE.INTRA.DIHEDRAL.0>
5.02738

>  <SCORE.INTRA.POLAR>
0

>  <SCORE.INTRA.POLAR.0>
0

>  <SCORE.INTRA.REPUL>
0

>  <SCORE.INTRA.REPUL.0>
0

>  <SCORE.INTRA.VDW>
0.121373

>  <SCORE.INTRA.VDW.0>
-0.709724

>  <SCORE.INTRA.norm>
-0.136815

>  <SCORE.RESTR>
0.381723

>  <SCORE.RESTR.CAVITY>
0.381723

>  <SCORE.RESTR.norm>
0.0381723

>  <SCORE.SYSTEM>
-10.7035

>  <SCORE.SYSTEM.CONST>
0

>  <SCORE.SYSTEM.DIHEDRAL>
6.12581

>  <SCORE.SYSTEM.POLAR>
-3.86519

>  <SCORE.SYSTEM.REPUL>
0.0440532

>  <SCORE.SYSTEM.VDW>
-0.845048

>  <SCORE.SYSTEM.norm>
-1.07035

>  <SCORE.heavy>
10

>  <SCORE.norm>
-0.69486

$$$$

  rDOCK(R)          3D
libRbt.so/2013.1/901 2013/11/27
 14 14  0  0  0  0  0  0  0  0999 V2000
   30.5586   26.6982   25.9763 C   0  0  0  0  0  0
   31.4041   27.1660   26.9963 O   0  0  0  0  0  0
   30.3014   27.7171   25.0305 O   0  0  0  0  0  0
   30.4377   27.1503   23.7441 C   0  0  0  0  0  0
   29.2471   27.5515   22.8643 C   0  0  0  0  0  0
   29.5361   27.3156   21.5129 O   0  0  0  0  0  0
   30.5567   25.6349   23.8828 C   0  0  0  0  0  0
   31.3873   25.1003   22.8845 O   0  0  0  0  0  0
   31.1423   25.4815   25.2644 C   0  0  0  0  0  0
   32.5469   25.5563   25.2271 O   0  0  0  0  0  0
   31.5326   26.4209   27.6401 H   0  0  0  0  0  0
   29.4391   26.3382   21.3678 H   0  0  0  0  0  0
   30.8340   25.0404   22.0625 H   0  0  0  0  0  0
   32.8592   25.5301   26.1690 H   0  0  0  0  0  0
  1  2  1  0  0  0
  1  3  1  0  0  0
  3  4  1  0  0  0
  4  5  1  0  0  0
  5  6  1  0  0  0
  4  7  1  0  0  0
  7  8  1  0  0  0
  7  9  1  0  0  0
  9 10  1  0  0  0
  9  1  1  0  0  0
  2 11  1  0  0  0
  6 12  1  0  0  0
  8 13  1  0  0  0
 10 14  1  0  0  0
M  END
>  <CHROM.0>
175.48326255,-46.51043678,179.96011576,-1.30632263,66.32343661,62.90089604

>  <CHROM.1>
178.65613681,163.89273045,77.27971374,-79.69350026,63.32019580,30.74628583
26.52839001,24.32687100,0.90253145,-0.87156858,1.15620176

>  <Name>

>  <RI>
3.66253e+07

>  <Rbt.Current_Directory>
/extra/banzai2/j5wagner/CELPP/2016_10_17_rdock_implementation/normal_run/tutorialVideo/tutorial_rdock_implementation/full_week_run/4-docking/5m93/SMCSS_3tmp_docking

>  <Rbt.Executable>
rbdock ($Id: //depot/dev/client3/rdock/2013.1/src/exe/rbdock.cxx#4 $)

>  <Rbt.Library>
libRbt.so (2013.1, Build901 2013/11/27)

>  <Rbt.Parameter_File>
/home/j5wagner/env_00/source/rDock/rDock_2013.1_src//data/scripts/dock.prm

>  <Rbt.Receptor>
/extra/banzai2/j5wagner/CELPP/2016_10_17_rdock_implementation/normal_run/tutorialVideo/tutorial_rdock_implementation/full_week_run/4-docking/5m93/SMCSS_3tmp_tech_prep/rDockGridGenInput.prm

>  <SCORE>
-28.3495

>  <SCORE.INTER>
-12.2417

>  <SCORE.INTER.CONST>
1

>  <SCORE.INTER.POLAR>
-3.54202

>  <SCORE.INTER.REPUL>
0.083755

>  <SCORE.INTER.ROT>
1

>  <SCORE.INTER.VDW>
-7.01767

>  <SCORE.INTER.norm>
-1.22417

>  <SCORE.INTRA>
-0.0612589

>  <SCORE.INTRA.DIHEDRAL>
-0.650904

>  <SCORE.INTRA.DIHEDRAL.0>
5.02738

>  <SCORE.INTRA.POLAR>
0

>  <SCORE.INTRA.POLAR.0>
0

>  <SCORE.INTRA.REPUL>
0.006634

>  <SCORE.INTRA.REPUL.0>
0

>  <SCORE.INTRA.VDW>
0.231023

>  <SCORE.INTRA.VDW.0>
-0.709724

>  <SCORE.INTRA.norm>
-0.00612589

>  <SCORE.RESTR>
1.3083

>  <SCORE.RESTR.CAVITY>
1.3083

>  <SCORE.RESTR.norm>
0.13083

>  <SCORE.SYSTEM>
-17.3547

>  <SCORE.SYSTEM.CONST>
0

>  <SCORE.SYSTEM.DIHEDRAL>
0.774335

>  <SCORE.SYSTEM.POLAR>
-4.72975

>  <SCORE.SYSTEM.VDW>
-1.66077

>  <SCORE.SYSTEM.norm>
-1.73547

>  <SCORE.heavy>
10

>  <SCORE.norm>
-2.83495

$$$$

  rDOCK(R)          3D
libRbt.so/2013.1/901 2013/11/27
 14 14  0  0  0  0  0  0  0  0999 V2000
   30.3739   26.7984   25.5527 C   0  0  0  0  0  0
   30.9090   27.6221   26.5572 O   0  0  0  0  0  0
   30.2122   27.5180   24.3464 O   0  0  0  0  0  0
   30.6982   26.7074   23.2969 C   0  0  0  0  0  0
   29.6932   26.6896   22.1383 C   0  0  0  0  0  0
   28.5122   27.3501   22.5051 O   0  0  0  0  0  0
   30.9652   25.3058   23.8392 C   0  0  0  0  0  0
   32.0550   24.7101   23.1836 O   0  0  0  0  0  0
   31.2435   25.5709   25.2978 C   0  0  0  0  0  0
   32.6018   25.8748   25.5041 O   0  0  0  0  0  0
   30.1460   28.0419   27.0343 H   0  0  0  0  0  0
   28.7528   28.3022   22.6518 H   0  0  0  0  0  0
   31.7839   24.5980   22.2352 H   0  0  0  0  0  0
   33.1105   25.0402   25.3311 H   0  0  0  0  0  0
  1  2  1  0  0  0
  1  3  1  0  0  0
  3  4  1  0  0  0
  4  5  1  0  0  0
  5  6  1  0  0  0
  4  7  1  0  0  0
  7  8  1  0  0  0
  7  9  1  0  0  0
  9 10  1  0  0  0
  9  1  1  0  0  0
  2 11  1  0  0  0
  6 12  1  0  0  0
  8 13  1  0  0  0
 10 14  1  0  0  0
M  END
>  <CHROM.0>
175.05283169,-49.49235186,61.01540469,124.08305476,66.12361694,-54.34042810

>  <CHROM.1>
90.04924085,-6.87607818,64.85936333,-64.54066159,179.54990382,30.73849713
26.43861808,24.23015609,0.65821211,-0.71455525,1.10531492

>  <Name>

>  <RI>
3.66253e+07

>  <Rbt.Current_Directory>
/extra/banzai2/j5wagner/CELPP/2016_10_17_rdock_implementation/normal_run/tutorialVideo/tutorial_rdock_implementation/full_week_run/4-docking/5m93/SMCSS_3tmp_docking

>  <Rbt.Executable>
rbdock ($Id: //depot/dev/client3/rdock/2013.1/src/exe/rbdock.cxx#4 $)

>  <Rbt.Library>
libRbt.so (2013.1, Build901 2013/11/27)

>  <Rbt.Parameter_File>
/home/j5wagner/env_00/source/rDock/rDock_2013.1_src//data/scripts/dock.prm

>  <Rbt.Receptor>
/extra/banzai2/j5wagner/CELPP/2016_10_17_rdock_implementation/normal_run/tutorialVideo/tutorial_rdock_implementation/full_week_run/4-docking/5m93/SMCSS_3tmp_tech_prep/rDockGridGenInput.prm

>  <SCORE>
-3.53992

>  <SCORE.INTER>
7.50581

>  <SCORE.INTER.CONST>
1

>  <SCORE.INTER.POLAR>
-1.49473

>  <SCORE.INTER.REPUL>
0.0321832

>  <SCORE.INTER.ROT>
1

>  <SCORE.INTER.VDW>
6.02699

>  <SCORE.INTER.norm>
0.750581

>  <SCORE.INTRA>
2.73781

>  <SCORE.INTRA.DIHEDRAL>
4.23684

>  <SCORE.INTRA.DIHEDRAL.0>
5.02738

>  <SCORE.INTRA.POLAR>
0

>  <SCORE.INTRA.POLAR.0>
0

>  <SCORE.INTRA.REPUL>
0

>  <SCORE.INTRA.REPUL.0>
0

>  <SCORE.INTRA.VDW>
0.619388

>  <SCORE.INTRA.VDW.0>
-0.709724

>  <SCORE.INTRA.norm>
0.273781

>  <SCORE.RESTR>
0.883495

>  <SCORE.RESTR.CAVITY>
0.883495

>  <SCORE.RESTR.norm>
0.0883495

>  <SCORE.SYSTEM>
-14.667

>  <SCORE.SYSTEM.CONST>
0

>  <SCORE.SYSTEM.DIHEDRAL>
4.04926

>  <SCORE.SYSTEM.POLAR>
-4.71691

>  <SCORE.SYSTEM.REPUL>
0.00664774

>  <SCORE.SYSTEM.VDW>
-0.687421

>  <SCORE.SYSTEM.norm>
-1.4667

>  <SCORE.heavy>
10

>  <SCORE.norm>
-0.353992

$$$$

  rDOCK(R)          3D
libRbt.so/2013.1/901 2013/11/27
 14 14  0  0  0  0  0  0  0  0999 V2000
   30.5715   26.1877   23.1652 C   0  0  0  0  0  0
   30.7144   27.4874   22.6511 O   0  0  0  0  0  0
   31.8038   25.4956   23.1302 O   0  0  0  0  0  0
   31.9639   24.8449   24.3735 C   0  0  0  0  0  0
   32.3958   23.3898   24.1532 C   0  0  0  0  0  0
   31.3489   22.6493   23.5864 O   0  0  0  0  0  0
   30.6535   24.9373   25.1509 C   0  0  0  0  0  0
   30.8911   25.0220   26.5324 O   0  0  0  0  0  0
   30.0345   26.1947   24.5933 C   0  0  0  0  0  0
   30.4895   27.3307   25.2878 O   0  0  0  0  0  0
   29.8666   27.9723   22.8308 H   0  0  0  0  0  0
   30.6650   22.5340   24.2969 H   0  0  0  0  0  0
   31.2700   25.9248   26.6964 H   0  0  0  0  0  0
   30.0717   28.1184   24.8515 H   0  0  0  0  0  0
  1  2  1  0  0  0
  1  3  1  0  0  0
  3  4  1  0  0  0
  4  5  1  0  0  0
  5  6  1  0  0  0
  4  7  1  0  0  0
  7  8  1  0  0  0
  7  9  1  0  0  0
  9 10  1  0  0  0
  9  1  1  0  0  0
  2 11  1  0  0  0
  6 12  1  0  0  0
  8 13  1  0  0  0
 10 14  1  0  0  0
M  END
>  <CHROM.0>
-65.48980884,-168.72069467,-59.46271557,10.81535436,67.24742251,174.26353399

>  <CHROM.1>
-171.17083546,-68.91658678,-71.39223415,71.10884580,66.26610108,31.07517680
25.38592612,24.27013507,-2.59864274,-1.20903689,2.07952196

>  <Name>

>  <RI>
3.66253e+07

>  <Rbt.Current_Directory>
/extra/banzai2/j5wagner/CELPP/2016_10_17_rdock_implementation/normal_run/tutorialVideo/tutorial_rdock_implementation/full_week_run/4-docking/5m93/SMCSS_3tmp_docking

>  <Rbt.Executable>
rbdock ($Id: //depot/dev/client3/rdock/2013.1/src/exe/rbdock.cxx#4 $)

>  <Rbt.Library>
libRbt.so (2013.1, Build901 2013/11/27)

>  <Rbt.Parameter_File>
/home/j5wagner/env_00/source/rDock/rDock_2013.1_src//data/scripts/dock.prm

>  <Rbt.Receptor>
/extra/banzai2/j5wagner/CELPP/2016_10_17_rdock_implementation/normal_run/tutorialVideo/tutorial_rdock_implementation/full_week_run/4-docking/5m93/SMCSS_3tmp_tech_prep/rDockGridGenInput.prm

>  <SCORE>
-31.097

>  <SCORE.INTER>
-16.3459

>  <SCORE.INTER.CONST>
1

>  <SCORE.INTER.POLAR>
-3.96519

>  <SCORE.INTER.REPUL>
0.0597239

>  <SCORE.INTER.ROT>
1

>  <SCORE.INTER.VDW>
-9.56287

>  <SCORE.INTER.norm>
-1.63459

>  <SCORE.INTRA>
-1.0458

>  <SCORE.INTRA.DIHEDRAL>
-2.63361

>  <SCORE.INTRA.DIHEDRAL.0>
5.02738

>  <SCORE.INTRA.POLAR>
-0.209578

>  <SCORE.INTRA.POLAR.0>
0

>  <SCORE.INTRA.REPUL>
0

>  <SCORE.INTRA.REPUL.0>
0

>  <SCORE.INTRA.VDW>
0.983572

>  <SCORE.INTRA.VDW.0>
-0.709724

>  <SCORE.INTRA.norm>
-0.10458

>  <SCORE.RESTR>
1.37695

>  <SCORE.RESTR.CAVITY>
1.37695

>  <SCORE.RESTR.norm>
0.137695

>  <SCORE.SYSTEM>
-15.0823

>  <SCORE.SYSTEM.CONST>
0

>  <SCORE.SYSTEM.DIHEDRAL>
1.0321

>  <SCORE.SYSTEM.POLAR>
-4.64544

>  <SCORE.SYSTEM.REPUL>
0.0134125

>  <SCORE.SYSTEM.VDW>
0.129117

>  <SCORE.SYSTEM.norm>
-1.50823

>  <SCORE.heavy>
10

>  <SCORE.norm>
-3.1097

$$$$

  rDOCK(R)          3D
libRbt.so/2013.1/901 2013/11/27
 14 14  0  0  0  0  0  0  0  0999 V2000
   29.9485   26.8412   23.1394 C   0  0  0  0  0  0
   29.8191   28.1179   22.5673 O   0  0  0  0  0  0
   31.1614   26.2333   22.7416 O   0  0  0  0  0  0
   31.7509   25.6632   23.8916 C   0  0  0  0  0  0
   32.2102   24.2309   23.5914 C   0  0  0  0  0  0
   31.1199   23.4384   23.2059 O   0  0  0  0  0  0
   30.7428   25.7085   25.0367 C   0  0  0  0  0  0
   31.3888   25.8839   26.2713 O   0  0  0  0  0  0
   29.8815   26.8891   24.6629 C   0  0  0  0  0  0
   30.4353   28.0893   25.1454 O   0  0  0  0  0  0
   28.8486   28.2947   22.4532 H   0  0  0  0  0  0
   30.6081   23.9646   22.5373 H   0  0  0  0  0  0
   30.6819   25.8352   26.9666 H   0  0  0  0  0  0
   30.2387   28.1237   26.1178 H   0  0  0  0  0  0
  1  2  1  0  0  0
  1  3  1  0  0  0
  3  4  1  0  0  0
  4  5  1  0  0  0
  5  6  1  0  0  0
  4  7  1  0  0  0
  7  8  1  0  0  0
  7  9  1  0  0  0
  9 10  1  0  0  0
  9  1  1  0  0  0
  2 11  1  0  0  0
  6 12  1  0  0  0
  8 13  1  0  0  0
 10 14  1  0  0  0
M  END
>  <CHROM.0>
176.53681165,71.79290197,-59.46301659,14.18595094,-61.92595732,64.87598413

>  <CHROM.1>
150.50967924,-60.03234766,46.56551103,-175.85949034,171.54010329,30.82875388
26.13302700,24.03182457,2.75943523,-1.13964425,1.23767372

>  <Name>

>  <RI>
3.66253e+07

>  <Rbt.Current_Directory>
/extra/banzai2/j5wagner/CELPP/2016_10_17_rdock_implementation/normal_run/tutorialVideo/tutorial_rdock_implementation/full_week_run/4-docking/5m93/SMCSS_3tmp_docking

>  <Rbt.Executable>
rbdock ($Id: //depot/dev/client3/rdock/2013.1/src/exe/rbdock.cxx#4 $)

>  <Rbt.Library>
libRbt.so (2013.1, Build901 2013/11/27)

>  <Rbt.Parameter_File>
/home/j5wagner/env_00/source/rDock/rDock_2013.1_src//data/scripts/dock.prm

>  <Rbt.Receptor>
/extra/banzai2/j5wagner/CELPP/2016_10_17_rdock_implementation/normal_run/tutorialVideo/tutorial_rdock_implementation/full_week_run/4-docking/5m93/SMCSS_3tmp_tech_prep/rDockGridGenInput.prm

>  <SCORE>
-28.4336

>  <SCORE.INTER>
-13.6308

>  <SCORE.INTER.CONST>
1

>  <SCORE.INTER.POLAR>
-4.44946

>  <SCORE.INTER.REPUL>
0.185507

>  <SCORE.INTER.ROT>
1

>  <SCORE.INTER.VDW>
-5.83013

>  <SCORE.INTER.norm>
-1.36308

>  <SCORE.INTRA>
0.204833

>  <SCORE.INTRA.DIHEDRAL>
0.0771872

>  <SCORE.INTRA.DIHEDRAL.0>
5.02738

>  <SCORE.INTRA.POLAR>
-0.0227688

>  <SCORE.INTRA.POLAR.0>
0

>  <SCORE.INTRA.REPUL>
0

>  <SCORE.INTRA.REPUL.0>
0

>  <SCORE.INTRA.VDW>
0.243653

>  <SCORE.INTRA.VDW.0>
-0.709724

>  <SCORE.INTRA.norm>
0.0204833

>  <SCORE.RESTR>
0.924723

>  <SCORE.RESTR.CAVITY>
0.924723

>  <SCORE.RESTR.norm>
0.0924723

>  <SCORE.SYSTEM>
-15.9324

>  <SCORE.SYSTEM.CONST>
0

>  <SCORE.SYSTEM.DIHEDRAL>
0.804974

>  <SCORE.SYSTEM.POLAR>
-4.26225

>  <SCORE.SYSTEM.VDW>
-1.84323

>  <SCORE.SYSTEM.norm>
-1.59324

>  <SCORE.heavy>
10

>  <SCORE.norm>
-2.84336

$$$$

  rDOCK(R)          3D
libRbt.so/2013.1/901 2013/11/27
 14 14  0  0  0  0  0  0  0  0999 V2000
   30.3411   24.2210   24.0019 C   0  0  0  0  0  0
   31.0993   23.0433   23.8918 O   0  0  0  0  0  0
   30.7890   25.0068   25.0886 O   0  0  0  0  0  0
   30.8736   26.3442   24.6426 C   0  0  0  0  0  0
   30.2124   27.2806   25.6617 C   0  0  0  0  0  0
   31.0549   27.4756   26.7652 O   0  0  0  0  0  0
   30.2192   26.4480   23.2675 C   0  0  0  0  0  0
   30.8595   27.4148   22.4754 O   0  0  0  0  0  0
   30.3878   25.0515   22.7228 C   0  0  0  0  0  0
   31.6332   24.9071   22.0840 O   0  0  0  0  0  0
   30.9781   22.5326   24.7348 H   0  0  0  0  0  0
   31.0955   26.6092   27.2485 H   0  0  0  0  0  0
   30.8641   28.2535   23.0066 H   0  0  0  0  0  0
   31.6882   23.9652   21.7755 H   0  0  0  0  0  0
  1  2  1  0  0  0
  1  3  1  0  0  0
  3  4  1  0  0  0
  4  5  1  0  0  0
  5  6  1  0  0  0
  4  7  1  0  0  0
  7  8  1  0  0  0
  7  9  1  0  0  0
  9 10  1  0  0  0
  9  1  1  0  0  0
  2 11  1  0  0  0
  6 12  1  0  0  0
  8 13  1  0  0  0
 10 14  1  0  0  0
M  END
>  <CHROM.0>
-63.74645420,-46.52042320,59.86229535,8.10676612,65.11771267,63.39188316

>  <CHROM.1>
60.87926537,76.84554583,-68.65494537,-53.86843152,66.64471417,30.78818131
25.70473421,24.07449849,-0.16685991,-1.50020337,2.17743804

>  <Name>

>  <RI>
3.66253e+07

>  <Rbt.Current_Directory>
/extra/banzai2/j5wagner/CELPP/2016_10_17_rdock_implementation/normal_run/tutorialVideo/tutorial_rdock_implementation/full_week_run/4-docking/5m93/SMCSS_3tmp_docking

>  <Rbt.Executable>
rbdock ($Id: //depot/dev/client3/rdock/2013.1/src/exe/rbdock.cxx#4 $)

>  <Rbt.Library>
libRbt.so (2013.1, Build901 2013/11/27)

>  <Rbt.Parameter_File>
/home/j5wagner/env_00/source/rDock/rDock_2013.1_src//data/scripts/dock.prm

>  <Rbt.Receptor>
/extra/banzai2/j5wagner/CELPP/2016_10_17_rdock_implementation/normal_run/tutorialVideo/tutorial_rdock_implementation/full_week_run/4-docking/5m93/SMCSS_3tmp_tech_prep/rDockGridGenInput.prm

>  <SCORE>
-11.2886

>  <SCORE.INTER>
5.5639

>  <SCORE.INTER.CONST>
1

>  <SCORE.INTER.POLAR>
-3.81463

>  <SCORE.INTER.REPUL>
0.00104648

>  <SCORE.INTER.ROT>
1

>  <SCORE.INTER.VDW>
12.1284

>  <SCORE.INTER.norm>
0.55639

>  <SCORE.INTRA>
-1.17717

>  <SCORE.INTRA.DIHEDRAL>
-2.96683

>  <SCORE.INTRA.DIHEDRAL.0>
5.02738

>  <SCORE.INTRA.POLAR>
0

>  <SCORE.INTRA.POLAR.0>
0

>  <SCORE.INTRA.REPUL>
0

>  <SCORE.INTRA.REPUL.0>
0

>  <SCORE.INTRA.VDW>
0.306242

>  <SCORE.INTRA.VDW.0>
-0.709724

>  <SCORE.INTRA.norm>
-0.117717

>  <SCORE.RESTR>
0.388816

>  <SCORE.RESTR.CAVITY>
0.388816

>  <SCORE.RESTR.norm>
0.0388816

>  <SCORE.SYSTEM>
-16.0641

>  <SCORE.SYSTEM.CONST>
0

>  <SCORE.SYSTEM.DIHEDRAL>
0.774699

>  <SCORE.SYSTEM.POLAR>
-4.72435

>  <SCORE.SYSTEM.VDW>
-0.388709

>  <SCORE.SYSTEM.norm>
-1.60641

>  <SCORE.heavy>
10

>  <SCORE.norm>
-1.12886

$$$$

  rDOCK(R)          3D
libRbt.so/2013.1/901 2013/11/27
 14 14  0  0  0  0  0  0  0  0999 V2000
   30.0090   26.1652   23.8103 C   0  0  0  0  0  0
   29.4263   27.2853   23.1941 O   0  0  0  0  0  0
   31.1983   25.7882   23.1453 O   0  0  0  0  0  0
   32.1772   25.5347   24.1314 C   0  0  0  0  0  0
   32.8920   24.2106   23.8339 C   0  0  0  0  0  0
   31.9576   23.1866   23.6251 O   0  0  0  0  0  0
   31.5053   25.5224   25.5019 C   0  0  0  0  0  0
   32.3711   26.0127   26.4929 O   0  0  0  0  0  0
   30.3108   26.4174   25.2845 C   0  0  0  0  0  0
   30.6474   27.7670   25.4972 O   0  0  0  0  0  0
   29.0991   26.9965   22.3021 H   0  0  0  0  0  0
   31.2363   23.5705   23.0610 H   0  0  0  0  0  0
   31.8819   25.9389   27.3536 H   0  0  0  0  0  0
   29.8150   28.2924   25.3691 H   0  0  0  0  0  0
  1  2  1  0  0  0
  1  3  1  0  0  0
  3  4  1  0  0  0
  4  5  1  0  0  0
  5  6  1  0  0  0
  4  7  1  0  0  0
  7  8  1  0  0  0
  7  9  1  0  0  0
  9 10  1  0  0  0
  9  1  1  0  0  0
  2 11  1  0  0  0
  6 12  1  0  0  0
  8 13  1  0  0  0
 10 14  1  0  0  0
M  END
>  <CHROM.0>
174.12057192,-46.10436289,-179.46548211,6.51850964,-61.35799465,-57.14099287

>  <CHROM.1>
68.35869761,-50.98053696,42.50130526,-177.70195083,70.16777584,31.22778410
25.81118280,24.44336590,2.51089322,-0.79669585,0.94678992

>  <Name>

>  <RI>
3.66253e+07

>  <Rbt.Current_Directory>
/extra/banzai2/j5wagner/CELPP/2016_10_17_rdock_implementation/normal_run/tutorialVideo/tutorial_rdock_implementation/full_week_run/4-docking/5m93/SMCSS_3tmp_docking

>  <Rbt.Executable>
rbdock ($Id: //depot/dev/client3/rdock/2013.1/src/exe/rbdock.cxx#4 $)

>  <Rbt.Library>
libRbt.so (2013.1, Build901 2013/11/27)

>  <Rbt.Parameter_File>
/home/j5wagner/env_00/source/rDock/rDock_2013.1_src//data/scripts/dock.prm

>  <Rbt.Receptor>
/extra/banzai2/j5wagner/CELPP/2016_10_17_rdock_implementation/normal_run/tutorialVideo/tutorial_rdock_implementation/full_week_run/4-docking/5m93/SMCSS_3tmp_tech_prep/rDockGridGenInput.prm

>  <SCORE>
-24.934

>  <SCORE.INTER>
-10.1026

>  <SCORE.INTER.CONST>
1

>  <SCORE.INTER.POLAR>
-2.74896

>  <SCORE.INTER.REPUL>
0.101287

>  <SCORE.INTER.ROT>
1

>  <SCORE.INTER.VDW>
-7.6626

>  <SCORE.INTER.norm>
-1.01026

>  <SCORE.INTRA>
-0.965851

>  <SCORE.INTRA.DIHEDRAL>
-2.14605

>  <SCORE.INTRA.DIHEDRAL.0>
5.02738

>  <SCORE.INTRA.POLAR>
-0.0805012

>  <SCORE.INTRA.POLAR.0>
0

>  <SCORE.INTRA.REPUL>
0

>  <SCORE.INTRA.REPUL.0>
0

>  <SCORE.INTRA.VDW>
0.380876

>  <SCORE.INTRA.VDW.0>
-0.709724

>  <SCORE.INTRA.norm>
-0.0965851

>  <SCORE.RESTR>
1.73616

>  <SCORE.RESTR.CAVITY>
1.73616

>  <SCORE.RESTR.norm>
0.173616

>  <SCORE.SYSTEM>
-15.6016

>  <SCORE.SYSTEM.CONST>
0

>  <SCORE.SYSTEM.DIHEDRAL>
0.733436

>  <SCORE.SYSTEM.POLAR>
-4.34663

>  <SCORE.SYSTEM.VDW>
-1.18982

>  <SCORE.SYSTEM.norm>
-1.56016

>  <SCORE.heavy>
10

>  <SCORE.norm>
-2.4934

$$$$

  rDOCK(R)          3D
libRbt.so/2013.1/901 2013/11/27
 14 14  0  0  0  0  0  0  0  0999 V2000
   30.1308   26.0589   21.8558 C   0  0  0  0  0  0
   30.4850   26.7459   20.6826 O   0  0  0  0  0  0
   31.0525   25.0220   22.1282 O   0  0  0  0  0  0
   31.3675   25.0807   23.5038 C   0  0  0  0  0  0
   31.2867   23.6792   24.1215 C   0  0  0  0  0  0
   32.2875   22.8526   23.5917 O   0  0  0  0  0  0
   30.4149   26.0585   24.1867 C   0  0  0  0  0  0
   31.0493   26.7223   25.2493 O   0  0  0  0  0  0
   30.0471   26.9918   23.0602 C   0  0  0  0  0  0
   30.9841   28.0352   22.9444 O   0  0  0  0  0  0
   30.2483   26.1627   19.9144 H   0  0  0  0  0  0
   33.1564   23.2423   23.8727 H   0  0  0  0  0  0
   31.3255   26.0194   25.8935 H   0  0  0  0  0  0
   31.0358   28.4724   23.8341 H   0  0  0  0  0  0
  1  2  1  0  0  0
  1  3  1  0  0  0
  3  4  1  0  0  0
  4  5  1  0  0  0
  5  6  1  0  0  0
  4  7  1  0  0  0
  7  8  1  0  0  0
  7  9  1  0  0  0
  9 10  1  0  0  0
  9  1  1  0  0  0
  2 11  1  0  0  0
  6 12  1  0  0  0
  8 13  1  0  0  0
 10 14  1  0  0  0
M  END
>  <CHROM.0>
-65.72673822,-59.43091243,-61.81738219,130.51183579,-61.32601082,66.74087961

>  <CHROM.1>
74.89781046,66.37093420,64.21327204,-60.69139926,-166.78010638,30.95325655
25.73265821,23.12450616,3.13512216,-1.25495615,1.14113261

>  <Name>

>  <RI>
3.66253e+07

>  <Rbt.Current_Directory>
/extra/banzai2/j5wagner/CELPP/2016_10_17_rdock_implementation/normal_run/tutorialVideo/tutorial_rdock_implementation/full_week_run/4-docking/5m93/SMCSS_3tmp_docking

>  <Rbt.Executable>
rbdock ($Id: //depot/dev/client3/rdock/2013.1/src/exe/rbdock.cxx#4 $)

>  <Rbt.Library>
libRbt.so (2013.1, Build901 2013/11/27)

>  <Rbt.Parameter_File>
/home/j5wagner/env_00/source/rDock/rDock_2013.1_src//data/scripts/dock.prm

>  <Rbt.Receptor>
/extra/banzai2/j5wagner/CELPP/2016_10_17_rdock_implementation/normal_run/tutorialVideo/tutorial_rdock_implementation/full_week_run/4-docking/5m93/SMCSS_3tmp_tech_prep/rDockGridGenInput.prm

>  <SCORE>
-11.0396

>  <SCORE.INTER>
1.99349

>  <SCORE.INTER.CONST>
1

>  <SCORE.INTER.POLAR>
-3.2409

>  <SCORE.INTER.REPUL>
0.452011

>  <SCORE.INTER.ROT>
1

>  <SCORE.INTER.VDW>
4.3525

>  <SCORE.INTER.norm>
0.199349

>  <SCORE.INTRA>
-1.05857

>  <SCORE.INTRA.DIHEDRAL>
-2.62462

>  <SCORE.INTRA.DIHEDRAL.0>
5.02738

>  <SCORE.INTRA.POLAR>
-0.0397944

>  <SCORE.INTRA.POLAR.0>
0

>  <SCORE.INTRA.REPUL>
0

>  <SCORE.INTRA.REPUL.0>
0

>  <SCORE.INTRA.VDW>
0.389041

>  <SCORE.INTRA.VDW.0>
-0.709724

>  <SCORE.INTRA.norm>
-0.105857

>  <SCORE.RESTR>
0.0493789

>  <SCORE.RESTR.CAVITY>
0.0493789

>  <SCORE.RESTR.norm>
0.00493789

>  <SCORE.SYSTEM>
-12.0239

>  <SCORE.SYSTEM.CONST>
0

>  <SCORE.SYSTEM.DIHEDRAL>
3.20416

>  <SCORE.SYSTEM.POLAR>
-3.96534

>  <SCORE.SYSTEM.REPUL>
0.00639767

>  <SCORE.SYSTEM.VDW>
-0.175813

>  <SCORE.SYSTEM.norm>
-1.20239

>  <SCORE.heavy>
10

>  <SCORE.norm>
-1.10396

$$$$

  rDOCK(R)          3D
libRbt.so/2013.1/901 2013/11/27
 14 14  0  0  0  0  0  0  0  0999 V2000
   30.2436   25.9311   22.7200 C   0  0  0  0  0  0
   30.3093   27.0777   21.9106 O   0  0  0  0  0  0
   31.4547   25.2040   22.6599 O   0  0  0  0  0  0
   31.8011   24.8411   23.9801 C   0  0  0  0  0  0
   32.1912   23.3586   24.0322 C   0  0  0  0  0  0
   32.5069   22.9818   25.3451 O   0  0  0  0  0  0
   30.6249   25.1520   24.9019 C   0  0  0  0  0  0
   31.0707   25.5334   26.1779 O   0  0  0  0  0  0
   29.9309   26.2755   24.1731 C   0  0  0  0  0  0
   30.4890   27.5202   24.5181 O   0  0  0  0  0  0
   30.4111   26.7722   20.9712 H   0  0  0  0  0  0
   32.7637   22.0232   25.3118 H   0  0  0  0  0  0
   31.6428   24.7922   26.5077 H   0  0  0  0  0  0
   30.3059   28.1349   23.7606 H   0  0  0  0  0  0
  1  2  1  0  0  0
  1  3  1  0  0  0
  3  4  1  0  0  0
  4  5  1  0  0  0
  5  6  1  0  0  0
  4  7  1  0  0  0
  7  8  1  0  0  0
  7  9  1  0  0  0
  9 10  1  0  0  0
  9  1  1  0  0  0
  2 11  1  0  0  0
  6 12  1  0  0  0
  8 13  1  0  0  0
 10 14  1  0  0  0
M  END
>  <CHROM.0>
173.54607462,78.05877499,-57.76867433,6.45775459,65.45269789,63.57949507

>  <CHROM.1>
63.91437291,-178.63517330,-179.09644060,-56.29051696,43.48671762,31.08600472
25.40246843,24.05239847,-2.61566576,-1.06426332,1.58477148

>  <Name>

>  <RI>
3.66253e+07

>  <Rbt.Current_Directory>
/extra/banzai2/j5wagner/CELPP/2016_10_17_rdock_implementation/normal_run/tutorialVideo/tutorial_rdock_implementation/full_week_run/4-docking/5m93/SMCSS_3tmp_docking

>  <Rbt.Executable>
rbdock ($Id: //depot/dev/client3/rdock/2013.1/src/exe/rbdock.cxx#4 $)

>  <Rbt.Library>
libRbt.so (2013.1, Build901 2013/11/27)

>  <Rbt.Parameter_File>
/home/j5wagner/env_00/source/rDock/rDock_2013.1_src//data/scripts/dock.prm

>  <Rbt.Receptor>
/extra/banzai2/j5wagner/CELPP/2016_10_17_rdock_implementation/normal_run/tutorialVideo/tutorial_rdock_implementation/full_week_run/4-docking/5m93/SMCSS_3tmp_tech_prep/rDockGridGenInput.prm

>  <SCORE>
-13.5871

>  <SCORE.INTER>
4.53073

>  <SCORE.INTER.CONST>
1

>  <SCORE.INTER.POLAR>
-1.74993

>  <SCORE.INTER.REPUL>
0.2525

>  <SCORE.INTER.ROT>
1

>  <SCORE.INTER.VDW>
2.81799

>  <SCORE.INTER.norm>
0.453073

>  <SCORE.INTRA>
-2.86728

>  <SCORE.INTRA.DIHEDRAL>
-3.33304

>  <SCORE.INTRA.DIHEDRAL.0>
5.02738

>  <SCORE.INTRA.POLAR>
-0.517938

>  <SCORE.INTRA.POLAR.0>
0

>  <SCORE.INTRA.REPUL>
0

>  <SCORE.INTRA.REPUL.0>
0

>  <SCORE.INTRA.VDW>
0.560224

>  <SCORE.INTRA.VDW.0>
-0.709724

>  <SCORE.INTRA.norm>
-0.286728

>  <SCORE.RESTR>
1.55027

>  <SCORE.RESTR.CAVITY>
1.55027

>  <SCORE.RESTR.norm>
0.155027

>  <SCORE.SYSTEM>
-16.8008

>  <SCORE.SYSTEM.CONST>
0

>  <SCORE.SYSTEM.DIHEDRAL>
1.22844

>  <SCORE.SYSTEM.POLAR>
-4.62805

>  <SCORE.SYSTEM.VDW>
-1.67967

>  <SCORE.SYSTEM.norm>
-1.68008

>  <SCORE.heavy>
10

>  <SCORE.norm>
-1.35871

$$$$

  rDOCK(R)          3D
libRbt.so/2013.1/901 2013/11/27
 14 14  0  0  0  0  0  0  0  0999 V2000
   30.2724   26.6339   23.0891 C   0  0  0  0  0  0
   30.4113   27.9646   22.6604 O   0  0  0  0  0  0
   31.4558   25.9006   22.8424 O   0  0  0  0  0  0
   31.7404   25.1459   24.0018 C   0  0  0  0  0  0
   32.0706   23.6980   23.6181 C   0  0  0  0  0  0
   32.5239   22.9866   24.7379 O   0  0  0  0  0  0
   30.5448   25.2246   24.9474 C   0  0  0  0  0  0
   30.9589   25.1882   26.2888 O   0  0  0  0  0  0
   29.9213   26.5456   24.5713 C   0  0  0  0  0  0
   30.5144   27.6036   25.2845 O   0  0  0  0  0  0
   31.2157   28.3379   23.1075 H   0  0  0  0  0  0
   33.3040   23.4861   25.0954 H   0  0  0  0  0  0
   31.5520   25.9734   26.4201 H   0  0  0  0  0  0
   30.1998   27.5269   26.2229 H   0  0  0  0  0  0
  1  2  1  0  0  0
  1  3  1  0  0  0
  3  4  1  0  0  0
  4  5  1  0  0  0
  5  6  1  0  0  0
  4  7  1  0  0  0
  7  8  1  0  0  0
  7  9  1  0  0  0
  9 10  1  0  0  0
  9  1  1  0  0  0
  2 11  1  0  0  0
  6 12  1  0  0  0
  8 13  1  0  0  0
 10 14  1  0  0  0
M  END
>  <CHROM.0>
173.71820824,-48.21581165,-58.43818967,5.55634260,63.98289672,173.33498188

>  <CHROM.1>
-55.09065589,172.26758790,-56.49586759,60.07487055,176.18629886,31.07547961
25.71682061,24.24303883,-2.59524026,-1.07606352,1.92417728

>  <Name>

>  <RI>
3.66253e+07

>  <Rbt.Current_Directory>
/extra/banzai2/j5wagner/CELPP/2016_10_17_rdock_implementation/normal_run/tutorialVideo/tutorial_rdock_implementation/full_week_run/4-docking/5m93/SMCSS_3tmp_docking

>  <Rbt.Executable>
rbdock ($Id: //depot/dev/client3/rdock/2013.1/src/exe/rbdock.cxx#4 $)

>  <Rbt.Library>
libRbt.so (2013.1, Build901 2013/11/27)

>  <Rbt.Parameter_File>
/home/j5wagner/env_00/source/rDock/rDock_2013.1_src//data/scripts/dock.prm

>  <Rbt.Receptor>
/extra/banzai2/j5wagner/CELPP/2016_10_17_rdock_implementation/normal_run/tutorialVideo/tutorial_rdock_implementation/full_week_run/4-docking/5m93/SMCSS_3tmp_tech_prep/rDockGridGenInput.prm

>  <SCORE>
-23.9066

>  <SCORE.INTER>
-6.65005

>  <SCORE.INTER.CONST>
1

>  <SCORE.INTER.POLAR>
-2.01684

>  <SCORE.INTER.REPUL>
0.275089

>  <SCORE.INTER.ROT>
1

>  <SCORE.INTER.VDW>
-7.56825

>  <SCORE.INTER.norm>
-0.665005

>  <SCORE.INTRA>
-1.54416

>  <SCORE.INTRA.DIHEDRAL>
-4.20887

>  <SCORE.INTRA.DIHEDRAL.0>
5.02738

>  <SCORE.INTRA.POLAR>
0

>  <SCORE.INTRA.POLAR.0>
0

>  <SCORE.INTRA.REPUL>
0

>  <SCORE.INTRA.REPUL.0>
0

>  <SCORE.INTRA.VDW>
0.560273

>  <SCORE.INTRA.VDW.0>
-0.709724

>  <SCORE.INTRA.norm>
-0.154416

>  <SCORE.RESTR>
0.986819

>  <SCORE.RESTR.CAVITY>
0.986819

>  <SCORE.RESTR.norm>
0.0986819

>  <SCORE.SYSTEM>
-16.6992

>  <SCORE.SYSTEM.CONST>
0

>  <SCORE.SYSTEM.DIHEDRAL>
0.868292

>  <SCORE.SYSTEM.POLAR>
-4.72742

>  <SCORE.SYSTEM.REPUL>
0.0134125

>  <SCORE.SYSTEM.VDW>
-1.12714

>  <SCORE.SYSTEM.norm>
-1.66992

>  <SCORE.heavy>
10

>  <SCORE.norm>
-2.39066

$$$$

  rDOCK(R)          3D
libRbt.so/2013.1/901 2013/11/27
 14 14  0  0  0  0  0  0  0  0999 V2000
   30.4016   25.5901   21.8880 C   0  0  0  0  0  0
   30.5663   26.2427   20.6547 O   0  0  0  0  0  0
   31.5229   24.7804   22.1814 O   0  0  0  0  0  0
   31.8702   25.0047   23.5319 C   0  0  0  0  0  0
   32.0966   23.6660   24.2454 C   0  0  0  0  0  0
   31.1553   22.7188   23.8185 O   0  0  0  0  0  0
   30.7659   25.8229   24.1959 C   0  0  0  0  0  0
   31.2922   26.6781   25.1777 O   0  0  0  0  0  0
   30.1760   26.5765   23.0299 C   0  0  0  0  0  0
   30.8784   27.7732   22.7965 O   0  0  0  0  0  0
   29.7361   26.7582   20.4787 H   0  0  0  0  0  0
   31.2891   21.9115   24.3808 H   0  0  0  0  0  0
   31.7242   26.0946   25.8548 H   0  0  0  0  0  0
   30.8131   28.3095   23.6292 H   0  0  0  0  0  0
  1  2  1  0  0  0
  1  3  1  0  0  0
  3  4  1  0  0  0
  4  5  1  0  0  0
  5  6  1  0  0  0
  4  7  1  0  0  0
  7  8  1  0  0  0
  7  9  1  0  0  0
  9 10  1  0  0  0
  9  1  1  0  0  0
  2 11  1  0  0  0
  6 12  1  0  0  0
  8 13  1  0  0  0
 10 14  1  0  0  0
M  END
>  <CHROM.0>
173.19079126,-79.52838439,-178.00278993,10.11463058,66.94380184,-55.77820655

>  <CHROM.1>
177.24793494,-39.11726708,-174.06990675,-60.96619789,-171.10223648,31.07556549
25.49593702,23.14851799,2.84484588,-1.30965067,0.74333647

>  <Name>

>  <RI>
3.66253e+07

>  <Rbt.Current_Directory>
/extra/banzai2/j5wagner/CELPP/2016_10_17_rdock_implementation/normal_run/tutorialVideo/tutorial_rdock_implementation/full_week_run/4-docking/5m93/SMCSS_3tmp_docking

>  <Rbt.Executable>
rbdock ($Id: //depot/dev/client3/rdock/2013.1/src/exe/rbdock.cxx#4 $)

>  <Rbt.Library>
libRbt.so (2013.1, Build901 2013/11/27)

>  <Rbt.Parameter_File>
/home/j5wagner/env_00/source/rDock/rDock_2013.1_src//data/scripts/dock.prm

>  <Rbt.Receptor>
/extra/banzai2/j5wagner/CELPP/2016_10_17_rdock_implementation/normal_run/tutorialVideo/tutorial_rdock_implementation/full_week_run/4-docking/5m93/SMCSS_3tmp_tech_prep/rDockGridGenInput.prm

>  <SCORE>
-13.2254

>  <SCORE.INTER>
1.85886

>  <SCORE.INTER.CONST>
1

>  <SCORE.INTER.POLAR>
-3.04211

>  <SCORE.INTER.REPUL>
0.319325

>  <SCORE.INTER.ROT>
1

>  <SCORE.INTER.VDW>
4.20542

>  <SCORE.INTER.norm>
0.185886

>  <SCORE.INTRA>
-0.950229

>  <SCORE.INTRA.DIHEDRAL>
-2.67712

>  <SCORE.INTRA.DIHEDRAL.0>
5.02738

>  <SCORE.INTRA.POLAR>
0

>  <SCORE.INTRA.POLAR.0>
0

>  <SCORE.INTRA.REPUL>
0

>  <SCORE.INTRA.REPUL.0>
0

>  <SCORE.INTRA.VDW>
0.388332

>  <SCORE.INTRA.VDW.0>
-0.709724

>  <SCORE.INTRA.norm>
-0.0950229

>  <SCORE.RESTR>
0.19682

>  <SCORE.RESTR.CAVITY>
0.19682

>  <SCORE.RESTR.norm>
0.019682

>  <SCORE.SYSTEM>
-14.3308

>  <SCORE.SYSTEM.CONST>
0

>  <SCORE.SYSTEM.DIHEDRAL>
1.56188

>  <SCORE.SYSTEM.POLAR>
-4.12942

>  <SCORE.SYSTEM.REPUL>
0.00140266

>  <SCORE.SYSTEM.VDW>
-1.07875

>  <SCORE.SYSTEM.norm>
-1.43308

>  <SCORE.heavy>
10

>  <SCORE.norm>
-1.32254

$$$$

  rDOCK(R)          3D
libRbt.so/2013.1/901 2013/11/27
 14 14  0  0  0  0  0  0  0  0999 V2000
   30.3821   26.2143   23.1208 C   0  0  0  0  0  0
   30.3209   27.3177   22.2532 O   0  0  0  0  0  0
   31.6655   25.6219   23.0900 O   0  0  0  0  0  0
   32.0511   25.3679   24.4247 C   0  0  0  0  0  0
   32.6013   23.9417   24.5503 C   0  0  0  0  0  0
   31.7362   23.0276   23.9327 O   0  0  0  0  0  0
   30.8489   25.5956   25.3373 C   0  0  0  0  0  0
   31.2515   26.0891   26.5889 O   0  0  0  0  0  0
   30.0351   26.5972   24.5564 C   0  0  0  0  0  0
   30.4538   27.9117   24.8333 O   0  0  0  0  0  0
   30.4163   26.9725   21.3270 H   0  0  0  0  0  0
   32.1064   22.1230   24.1077 H   0  0  0  0  0  0
   31.8241   25.3874   26.9955 H   0  0  0  0  0  0
   30.1297   28.1281   25.7463 H   0  0  0  0  0  0
  1  2  1  0  0  0
  1  3  1  0  0  0
  3  4  1  0  0  0
  4  5  1  0  0  0
  5  6  1  0  0  0
  4  7  1  0  0  0
  7  8  1  0  0  0
  7  9  1  0  0  0
  9 10  1  0  0  0
  9  1  1  0  0  0
  2 11  1  0  0  0
  6 12  1  0  0  0
  8 13  1  0  0  0
 10 14  1  0  0  0
M  END
>  <CHROM.0>
175.59110621,-46.99439018,-62.14159611,7.29143248,65.19678978,-54.61135828

>  <CHROM.1>
66.24460535,-48.18902115,-175.67912491,-62.29921321,175.03929649,31.13919130
25.77542884,24.26522575,-3.13748638,-1.12409354,1.39498512

>  <Name>

>  <RI>
3.66253e+07

>  <Rbt.Current_Directory>
/extra/banzai2/j5wagner/CELPP/2016_10_17_rdock_implementation/normal_run/tutorialVideo/tutorial_rdock_implementation/full_week_run/4-docking/5m93/SMCSS_3tmp_docking

>  <Rbt.Executable>
rbdock ($Id: //depot/dev/client3/rdock/2013.1/src/exe/rbdock.cxx#4 $)

>  <Rbt.Library>
libRbt.so (2013.1, Build901 2013/11/27)

>  <Rbt.Parameter_File>
/home/j5wagner/env_00/source/rDock/rDock_2013.1_src//data/scripts/dock.prm

>  <Rbt.Receptor>
/extra/banzai2/j5wagner/CELPP/2016_10_17_rdock_implementation/normal_run/tutorialVideo/tutorial_rdock_implementation/full_week_run/4-docking/5m93/SMCSS_3tmp_tech_prep/rDockGridGenInput.prm

>  <SCORE>
-26.1441

>  <SCORE.INTER>
-9.11936

>  <SCORE.INTER.CONST>
1

>  <SCORE.INTER.POLAR>
-2.68855

>  <SCORE.INTER.REPUL>
0.196807

>  <SCORE.INTER.ROT>
1

>  <SCORE.INTER.VDW>
-7.36232

>  <SCORE.INTER.norm>
-0.911936

>  <SCORE.INTRA>
-1.78553

>  <SCORE.INTRA.DIHEDRAL>
-3.76577

>  <SCORE.INTRA.DIHEDRAL.0>
5.02738

>  <SCORE.INTRA.POLAR>
0

>  <SCORE.INTRA.POLAR.0>
0

>  <SCORE.INTRA.REPUL>
0

>  <SCORE.INTRA.REPUL.0>
0

>  <SCORE.INTRA.VDW>
0.0973571

>  <SCORE.INTRA.VDW.0>
-0.709724

>  <SCORE.INTRA.norm>
-0.178553

>  <SCORE.RESTR>
1.49865

>  <SCORE.RESTR.CAVITY>
1.49865

>  <SCORE.RESTR.norm>
0.149865

>  <SCORE.SYSTEM>
-16.7379

>  <SCORE.SYSTEM.CONST>
0

>  <SCORE.SYSTEM.DIHEDRAL>
0.856102

>  <SCORE.SYSTEM.POLAR>
-4.7273

>  <SCORE.SYSTEM.VDW>
-1.09308

>  <SCORE.SYSTEM.norm>
-1.67379

>  <SCORE.heavy>
10

>  <SCORE.norm>
-2.61441

$$$$

  rDOCK(R)          3D
libRbt.so/2013.1/901 2013/11/27
 14 14  0  0  0  0  0  0  0  0999 V2000
   30.1657   25.7296   21.8838 C   0  0  0  0  0  0
   30.5198   26.2940   20.6468 O   0  0  0  0  0  0
   31.0975   24.7383   22.2686 O   0  0  0  0  0  0
   31.4026   24.9449   23.6320 C   0  0  0  0  0  0
   31.3339   23.6151   24.3931 C   0  0  0  0  0  0
   32.1271   22.6477   23.7603 O   0  0  0  0  0  0
   30.4342   25.9773   24.2033 C   0  0  0  0  0  0
   31.0538   26.7567   25.1937 O   0  0  0  0  0  0
   30.0632   26.7827   22.9830 C   0  0  0  0  0  0
   30.9888   27.8195   22.7634 O   0  0  0  0  0  0
   29.7586   26.8582   20.3495 H   0  0  0  0  0  0
   32.0187   21.8078   24.2785 H   0  0  0  0  0  0
   31.3094   26.1324   25.9220 H   0  0  0  0  0  0
   31.0420   28.3382   23.6081 H   0  0  0  0  0  0
  1  2  1  0  0  0
  1  3  1  0  0  0
  3  4  1  0  0  0
  4  5  1  0  0  0
  5  6  1  0  0  0
  4  7  1  0  0  0
  7  8  1  0  0  0
  7  9  1  0  0  0
  9 10  1  0  0  0
  9  1  1  0  0  0
  2 11  1  0  0  0
  6 12  1  0  0  0
  8 13  1  0  0  0
 10 14  1  0  0  0
M  END
>  <CHROM.0>
174.65188722,66.83704984,-179.51379123,8.28682534,69.52591198,174.94677936

>  <CHROM.1>
170.13589432,52.66233860,-178.19404195,-62.34818558,-165.75604954,30.94818305
25.53651493,23.16640120,3.07343204,-1.28351889,1.03603398

>  <Name>

>  <RI>
3.66253e+07

>  <Rbt.Current_Directory>
/extra/banzai2/j5wagner/CELPP/2016_10_17_rdock_implementation/normal_run/tutorialVideo/tutorial_rdock_implementation/full_week_run/4-docking/5m93/SMCSS_3tmp_docking

>  <Rbt.Executable>
rbdock ($Id: //depot/dev/client3/rdock/2013.1/src/exe/rbdock.cxx#4 $)

>  <Rbt.Library>
libRbt.so (2013.1, Build901 2013/11/27)

>  <Rbt.Parameter_File>
/home/j5wagner/env_00/source/rDock/rDock_2013.1_src//data/scripts/dock.prm

>  <Rbt.Receptor>
/extra/banzai2/j5wagner/CELPP/2016_10_17_rdock_implementation/normal_run/tutorialVideo/tutorial_rdock_implementation/full_week_run/4-docking/5m93/SMCSS_3tmp_tech_prep/rDockGridGenInput.prm

>  <SCORE>
-15.8527

>  <SCORE.INTER>
1.35491

>  <SCORE.INTER.CONST>
1

>  <SCORE.INTER.POLAR>
-3.16736

>  <SCORE.INTER.REPUL>
0.247662

>  <SCORE.INTER.ROT>
1

>  <SCORE.INTER.VDW>
4.48564

>  <SCORE.INTER.norm>
0.135491

>  <SCORE.INTRA>
-1.32152

>  <SCORE.INTRA.DIHEDRAL>
-3.06877

>  <SCORE.INTRA.DIHEDRAL.0>
5.02738

>  <SCORE.INTRA.POLAR>
-0.0523501

>  <SCORE.INTRA.POLAR.0>
0

>  <SCORE.INTRA.REPUL>
0

>  <SCORE.INTRA.REPUL.0>
0

>  <SCORE.INTRA.VDW>
0.390855

>  <SCORE.INTRA.VDW.0>
-0.709724

>  <SCORE.INTRA.norm>
-0.132152

>  <SCORE.RESTR>
0.19757

>  <SCORE.RESTR.CAVITY>
0.19757

>  <SCORE.RESTR.norm>
0.019757

>  <SCORE.SYSTEM>
-16.0836

>  <SCORE.SYSTEM.CONST>
0

>  <SCORE.SYSTEM.DIHEDRAL>
0.913292

>  <SCORE.SYSTEM.POLAR>
-4.54197

>  <SCORE.SYSTEM.REPUL>
0.0134125

>  <SCORE.SYSTEM.VDW>
-1.16467

>  <SCORE.SYSTEM.norm>
-1.60836

>  <SCORE.heavy>
10

>  <SCORE.norm>
-1.58527

$$$$

  rDOCK(R)          3D
libRbt.so/2013.1/901 2013/11/27
 14 14  0  0  0  0  0  0  0  0999 V2000
   30.1679   25.9394   22.1154 C   0  0  0  0  0  0
   30.3164   26.6960   20.9409 O   0  0  0  0  0  0
   31.3707   25.2695   22.4367 O   0  0  0  0  0  0
   31.5984   25.4401   23.8202 C   0  0  0  0  0  0
   31.9646   24.0961   24.4620 C   0  0  0  0  0  0
   31.2101   23.0605   23.8928 O   0  0  0  0  0  0
   30.3514   26.0514   24.4536 C   0  0  0  0  0  0
   30.6908   26.8963   25.5227 O   0  0  0  0  0  0
   29.7359   26.8008   23.2983 C   0  0  0  0  0  0
   30.2775   28.0952   23.1920 O   0  0  0  0  0  0
   29.4060   26.8823   20.5909 H   0  0  0  0  0  0
   31.5041   22.2200   24.3322 H   0  0  0  0  0  0
   31.1243   26.3220   26.2067 H   0  0  0  0  0  0
   31.2643   27.9905   23.1665 H   0  0  0  0  0  0
  1  2  1  0  0  0
  1  3  1  0  0  0
  3  4  1  0  0  0
  4  5  1  0  0  0
  5  6  1  0  0  0
  4  7  1  0  0  0
  7  8  1  0  0  0
  7  9  1  0  0  0
  9 10  1  0  0  0
  9  1  1  0  0  0
  2 11  1  0  0  0
  6 12  1  0  0  0
  8 13  1  0  0  0
 10 14  1  0  0  0
M  END
>  <CHROM.0>
172.97381986,-48.18667472,-57.42382821,131.61811784,-62.61707880,-55.52932798

>  <CHROM.1>
160.88674728,-38.07297100,178.80433015,-63.19045600,-58.97692678,30.77838620
25.84014959,23.40332673,-2.98677586,-1.23114630,1.23013615

>  <Name>

>  <RI>
3.66253e+07

>  <Rbt.Current_Directory>
/extra/banzai2/j5wagner/CELPP/2016_10_17_rdock_implementation/normal_run/tutorialVideo/tutorial_rdock_implementation/full_week_run/4-docking/5m93/SMCSS_3tmp_docking

>  <Rbt.Executable>
rbdock ($Id: //depot/dev/client3/rdock/2013.1/src/exe/rbdock.cxx#4 $)

>  <Rbt.Library>
libRbt.so (2013.1, Build901 2013/11/27)

>  <Rbt.Parameter_File>
/home/j5wagner/env_00/source/rDock/rDock_2013.1_src//data/scripts/dock.prm

>  <Rbt.Receptor>
/extra/banzai2/j5wagner/CELPP/2016_10_17_rdock_implementation/normal_run/tutorialVideo/tutorial_rdock_implementation/full_week_run/4-docking/5m93/SMCSS_3tmp_tech_prep/rDockGridGenInput.prm

>  <SCORE>
-11.5176

>  <SCORE.INTER>
1.85101

>  <SCORE.INTER.CONST>
1

>  <SCORE.INTER.POLAR>
-3.12822

>  <SCORE.INTER.REPUL>
0.442104

>  <SCORE.INTER.ROT>
1

>  <SCORE.INTER.VDW>
3.87642

>  <SCORE.INTER.norm>
0.185101

>  <SCORE.INTRA>
-0.133678

>  <SCORE.INTRA.DIHEDRAL>
-1.41261

>  <SCORE.INTRA.DIHEDRAL.0>
5.02738

>  <SCORE.INTRA.POLAR>
0

>  <SCORE.INTRA.POLAR.0>
0

>  <SCORE.INTRA.REPUL>
0

>  <SCORE.INTRA.REPUL.0>
0

>  <SCORE.INTRA.VDW>
0.572626

>  <SCORE.INTRA.VDW.0>
-0.709724

>  <SCORE.INTRA.norm>
-0.0133678

>  <SCORE.RESTR>
0.356482

>  <SCORE.RESTR.CAVITY>
0.356482

>  <SCORE.RESTR.norm>
0.0356482

>  <SCORE.SYSTEM>
-13.5914

>  <SCORE.SYSTEM.CONST>
0

>  <SCORE.SYSTEM.DIHEDRAL>
3.4352

>  <SCORE.SYSTEM.POLAR>
-4.27196

>  <SCORE.SYSTEM.REPUL>
0.00632818

>  <SCORE.SYSTEM.VDW>
-0.815956

>  <SCORE.SYSTEM.norm>
-1.35914

>  <SCORE.heavy>
10

>  <SCORE.norm>
-1.15176

$$$$

  rDOCK(R)          3D
libRbt.so/2013.1/901 2013/11/27
 14 14  0  0  0  0  0  0  0  0999 V2000
   30.6783   25.8989   22.9812 C   0  0  0  0  0  0
   30.4869   26.9621   22.0829 O   0  0  0  0  0  0
   32.0491   25.7434   23.2905 O   0  0  0  0  0  0
   32.1546   25.5681   24.6880 C   0  0  0  0  0  0
   33.0784   24.3843   25.0007 C   0  0  0  0  0  0
   34.3626   24.6175   24.4888 O   0  0  0  0  0  0
   30.7567   25.3664   25.2667 C   0  0  0  0  0  0
   30.6622   25.9086   26.5587 O   0  0  0  0  0  0
   29.8865   26.0920   24.2710 C   0  0  0  0  0  0
   29.7870   27.4586   24.5910 O   0  0  0  0  0  0
   29.5235   26.9776   21.8426 H   0  0  0  0  0  0
   34.2544   24.7887   23.5167 H   0  0  0  0  0  0
   31.3021   25.4009   27.1229 H   0  0  0  0  0  0
   30.6971   27.8422   24.4908 H   0  0  0  0  0  0
  1  2  1  0  0  0
  1  3  1  0  0  0
  3  4  1  0  0  0
  4  5  1  0  0  0
  5  6  1  0  0  0
  4  7  1  0  0  0
  7  8  1  0  0  0
  7  9  1  0  0  0
  9 10  1  0  0  0
  9  1  1  0  0  0
  2 11  1  0  0  0
  6 12  1  0  0  0
  8 13  1  0  0  0
 10 14  1  0  0  0
M  END
>  <CHROM.0>
-63.84036780,-51.66127188,64.79431374,4.11095040,64.13903339,-56.35313700

>  <CHROM.1>
175.35588657,60.54263636,-56.30125663,-62.84586246,-46.83220033,31.41088723
25.83620836,24.31251032,-2.76925244,-0.49471212,1.77764745

>  <Name>

>  <RI>
3.66253e+07

>  <Rbt.Current_Directory>
/extra/banzai2/j5wagner/CELPP/2016_10_17_rdock_implementation/normal_run/tutorialVideo/tutorial_rdock_implementation/full_week_run/4-docking/5m93/SMCSS_3tmp_docking

>  <Rbt.Executable>
rbdock ($Id: //depot/dev/client3/rdock/2013.1/src/exe/rbdock.cxx#4 $)

>  <Rbt.Library>
libRbt.so (2013.1, Build901 2013/11/27)

>  <Rbt.Parameter_File>
/home/j5wagner/env_00/source/rDock/rDock_2013.1_src//data/scripts/dock.prm

>  <Rbt.Receptor>
/extra/banzai2/j5wagner/CELPP/2016_10_17_rdock_implementation/normal_run/tutorialVideo/tutorial_rdock_implementation/full_week_run/4-docking/5m93/SMCSS_3tmp_tech_prep/rDockGridGenInput.prm

>  <SCORE>
-19.914

>  <SCORE.INTER>
-4.92201

>  <SCORE.INTER.CONST>
1

>  <SCORE.INTER.POLAR>
-2.41787

>  <SCORE.INTER.REPUL>
0.0924914

>  <SCORE.INTER.ROT>
1

>  <SCORE.INTER.VDW>
-3.56372

>  <SCORE.INTER.norm>
-0.492201

>  <SCORE.INTRA>
-1.1498

>  <SCORE.INTRA.DIHEDRAL>
-3.68614

>  <SCORE.INTRA.DIHEDRAL.0>
5.02738

>  <SCORE.INTRA.POLAR>
-0.0248663

>  <SCORE.INTRA.POLAR.0>
0

>  <SCORE.INTRA.REPUL>
0

>  <SCORE.INTRA.REPUL.0>
0

>  <SCORE.INTRA.VDW>
0.777814

>  <SCORE.INTRA.VDW.0>
-0.709724

>  <SCORE.INTRA.norm>
-0.11498

>  <SCORE.RESTR>
1.63663

>  <SCORE.RESTR.CAVITY>
1.63663

>  <SCORE.RESTR.norm>
0.163663

>  <SCORE.SYSTEM>
-15.4788

>  <SCORE.SYSTEM.CONST>
0

>  <SCORE.SYSTEM.DIHEDRAL>
0.47104

>  <SCORE.SYSTEM.POLAR>
-4.67641

>  <SCORE.SYSTEM.VDW>
0.18546

>  <SCORE.SYSTEM.norm>
-1.54788

>  <SCORE.heavy>
10

>  <SCORE.norm>
-1.9914

$$$$

  rDOCK(R)          3D
libRbt.so/2013.1/901 2013/11/27
 14 14  0  0  0  0  0  0  0  0999 V2000
   30.1666   26.1974   22.3810 C   0  0  0  0  0  0
   30.5775   26.9064   21.2397 O   0  0  0  0  0  0
   31.0629   25.1418   22.6661 O   0  0  0  0  0  0
   31.3220   25.1644   24.0543 C   0  0  0  0  0  0
   31.1978   23.7502   24.6350 C   0  0  0  0  0  0
   32.0353   22.8628   23.9446 O   0  0  0  0  0  0
   30.3549   26.1393   24.7208 C   0  0  0  0  0  0
   30.9536   26.7695   25.8238 O   0  0  0  0  0  0
   30.0456   27.1034   23.6027 C   0  0  0  0  0  0
   30.9999   28.1361   23.5498 O   0  0  0  0  0  0
   30.3730   26.3407   20.4495 H   0  0  0  0  0  0
   32.9639   23.1899   24.0733 H   0  0  0  0  0  0
   31.1761   26.0500   26.4705 H   0  0  0  0  0  0
   31.3248   28.1767   22.6127 H   0  0  0  0  0  0
  1  2  1  0  0  0
  1  3  1  0  0  0
  3  4  1  0  0  0
  4  5  1  0  0  0
  5  6  1  0  0  0
  4  7  1  0  0  0
  7  8  1  0  0  0
  7  9  1  0  0  0
  9 10  1  0  0  0
  9  1  1  0  0  0
  2 11  1  0  0  0
  6 12  1  0  0  0
  8 13  1  0  0  0
 10 14  1  0  0  0
M  END
>  <CHROM.0>
173.87101109,-166.97163554,-178.90529103,6.71232692,64.96722718,63.18692464

>  <CHROM.1>
74.36730634,55.07770633,61.36273219,-61.89548227,16.70008910,30.91484211
25.82104075,23.63977015,-3.04135579,-1.30696862,1.29707180

>  <Name>

>  <RI>
3.66253e+07

>  <Rbt.Current_Directory>
/extra/banzai2/j5wagner/CELPP/2016_10_17_rdock_implementation/normal_run/tutorialVideo/tutorial_rdock_implementation/full_week_run/4-docking/5m93/SMCSS_3tmp_docking

>  <Rbt.Executable>
rbdock ($Id: //depot/dev/client3/rdock/2013.1/src/exe/rbdock.cxx#4 $)

>  <Rbt.Library>
libRbt.so (2013.1, Build901 2013/11/27)

>  <Rbt.Parameter_File>
/home/j5wagner/env_00/source/rDock/rDock_2013.1_src//data/scripts/dock.prm

>  <Rbt.Receptor>
/extra/banzai2/j5wagner/CELPP/2016_10_17_rdock_implementation/normal_run/tutorialVideo/tutorial_rdock_implementation/full_week_run/4-docking/5m93/SMCSS_3tmp_tech_prep/rDockGridGenInput.prm

>  <SCORE>
-15.688

>  <SCORE.INTER>
0.117413

>  <SCORE.INTER.CONST>
1

>  <SCORE.INTER.POLAR>
-2.99507

>  <SCORE.INTER.REPUL>
0.301855

>  <SCORE.INTER.ROT>
1

>  <SCORE.INTER.VDW>
2.39139

>  <SCORE.INTER.norm>
0.0117413

>  <SCORE.INTRA>
0.810572

>  <SCORE.INTRA.DIHEDRAL>
1.95771

>  <SCORE.INTRA.DIHEDRAL.0>
5.02738

>  <SCORE.INTRA.POLAR>
-0.394988

>  <SCORE.INTRA.POLAR.0>
0

>  <SCORE.INTRA.REPUL>
0

>  <SCORE.INTRA.REPUL.0>
0

>  <SCORE.INTRA.VDW>
1.17467

>  <SCORE.INTRA.VDW.0>
-0.709724

>  <SCORE.INTRA.norm>
0.0810572

>  <SCORE.RESTR>
0.445471

>  <SCORE.RESTR.CAVITY>
0.445471

>  <SCORE.RESTR.norm>
0.0445471

>  <SCORE.SYSTEM>
-17.0614

>  <SCORE.SYSTEM.CONST>
0

>  <SCORE.SYSTEM.DIHEDRAL>
0.822531

>  <SCORE.SYSTEM.POLAR>
-4.63424

>  <SCORE.SYSTEM.VDW>
-1.7163

>  <SCORE.SYSTEM.norm>
-1.70614

>  <SCORE.heavy>
10

>  <SCORE.norm>
-1.5688

$$$$

  rDOCK(R)          3D
libRbt.so/2013.1/901 2013/11/27
 14 14  0  0  0  0  0  0  0  0999 V2000
   30.9321   26.1429   23.6879 C   0  0  0  0  0  0
   30.0565   27.0699   24.2779 O   0  0  0  0  0  0
   32.2112   26.2088   24.2868 O   0  0  0  0  0  0
   32.6398   24.8845   24.5258 C   0  0  0  0  0  0
   34.0846   24.7047   24.0432 C   0  0  0  0  0  0
   34.6385   23.5352   24.5825 O   0  0  0  0  0  0
   31.6832   23.9225   23.8262 C   0  0  0  0  0  0
   31.5512   22.7264   24.5502 O   0  0  0  0  0  0
   30.4010   24.7158   23.7830 C   0  0  0  0  0  0
   29.6605   24.5409   24.9666 O   0  0  0  0  0  0
   30.4502   27.9726   24.1502 H   0  0  0  0  0  0
   34.0986   22.7781   24.2342 H   0  0  0  0  0  0
   30.8224   22.2135   24.1128 H   0  0  0  0  0  0
   30.2677   24.7656   25.7190 H   0  0  0  0  0  0
  1  2  1  0  0  0
  1  3  1  0  0  0
  3  4  1  0  0  0
  4  5  1  0  0  0
  5  6  1  0  0  0
  4  7  1  0  0  0
  7  8  1  0  0  0
  7  9  1  0  0  0
  9 10  1  0  0  0
  9  1  1  0  0  0
  2 11  1  0  0  0
  6 12  1  0  0  0
  8 13  1  0  0  0
 10 14  1  0  0  0
M  END
>  <CHROM.0>
174.15529073,-48.64875009,-178.94892907,6.15535488,66.75472442,175.77514602

>  <CHROM.1>
59.50877972,164.32837823,62.66620715,171.85771015,-57.73021815,31.77505995
24.83026790,24.28745818,-2.59258448,-0.03746593,3.03392446

>  <Name>

>  <RI>
3.66253e+07

>  <Rbt.Current_Directory>
/extra/banzai2/j5wagner/CELPP/2016_10_17_rdock_implementation/normal_run/tutorialVideo/tutorial_rdock_implementation/full_week_run/4-docking/5m93/SMCSS_3tmp_docking

>  <Rbt.Executable>
rbdock ($Id: //depot/dev/client3/rdock/2013.1/src/exe/rbdock.cxx#4 $)

>  <Rbt.Library>
libRbt.so (2013.1, Build901 2013/11/27)

>  <Rbt.Parameter_File>
/home/j5wagner/env_00/source/rDock/rDock_2013.1_src//data/scripts/dock.prm

>  <Rbt.Receptor>
/extra/banzai2/j5wagner/CELPP/2016_10_17_rdock_implementation/normal_run/tutorialVideo/tutorial_rdock_implementation/full_week_run/4-docking/5m93/SMCSS_3tmp_tech_prep/rDockGridGenInput.prm

>  <SCORE>
-21.5541

>  <SCORE.INTER>
-4.21033

>  <SCORE.INTER.CONST>
1

>  <SCORE.INTER.POLAR>
-0.748128

>  <SCORE.INTER.REPUL>
0.106466

>  <SCORE.INTER.ROT>
1

>  <SCORE.INTER.VDW>
-8.59903

>  <SCORE.INTER.norm>
-0.421033

>  <SCORE.INTRA>
-1.12137

>  <SCORE.INTRA.DIHEDRAL>
-3.45377

>  <SCORE.INTRA.DIHEDRAL.0>
5.02738

>  <SCORE.INTRA.POLAR>
0

>  <SCORE.INTRA.POLAR.0>
0

>  <SCORE.INTRA.REPUL>
0

>  <SCORE.INTRA.REPUL.0>
0

>  <SCORE.INTRA.VDW>
0.605519

>  <SCORE.INTRA.VDW.0>
-0.709724

>  <SCORE.INTRA.norm>
-0.112137

>  <SCORE.RESTR>
0.453733

>  <SCORE.RESTR.CAVITY>
0.453733

>  <SCORE.RESTR.norm>
0.0453733

>  <SCORE.SYSTEM>
-16.6761

>  <SCORE.SYSTEM.CONST>
0

>  <SCORE.SYSTEM.DIHEDRAL>
0.841227

>  <SCORE.SYSTEM.POLAR>
-4.73298

>  <SCORE.SYSTEM.REPUL>
0.0134125

>  <SCORE.SYSTEM.VDW>
-1.07165

>  <SCORE.SYSTEM.norm>
-1.66761

>  <SCORE.heavy>
10

>  <SCORE.norm>
-2.15541

$$$$

  rDOCK(R)          3D
libRbt.so/2013.1/901 2013/11/27
 14 14  0  0  0  0  0  0  0  0999 V2000
   30.0519   27.3598   25.3068 C   0  0  0  0  0  0
   30.5997   28.3502   26.1394 O   0  0  0  0  0  0
   30.2252   27.6968   23.9447 O   0  0  0  0  0  0
   30.6731   26.5387   23.2717 C   0  0  0  0  0  0
   29.8667   26.3350   21.9829 C   0  0  0  0  0  0
   30.4014   27.1096   20.9439 O   0  0  0  0  0  0
   30.5517   25.3431   24.2129 C   0  0  0  0  0  0
   31.5717   24.4077   23.9748 O   0  0  0  0  0  0
   30.6656   25.9883   25.5716 C   0  0  0  0  0  0
   32.0128   26.1147   25.9577 O   0  0  0  0  0  0
   30.4478   28.0654   27.0786 H   0  0  0  0  0  0
   29.8379   26.9402   20.1441 H   0  0  0  0  0  0
   31.4043   23.6479   24.5914 H   0  0  0  0  0  0
   32.3518   25.1953   26.1159 H   0  0  0  0  0  0
  1  2  1  0  0  0
  1  3  1  0  0  0
  3  4  1  0  0  0
  4  5  1  0  0  0
  5  6  1  0  0  0
  4  7  1  0  0  0
  7  8  1  0  0  0
  7  9  1  0  0  0
  9 10  1  0  0  0
  9  1  1  0  0  0
  2 11  1  0  0  0
  6 12  1  0  0  0
  8 13  1  0  0  0
 10 14  1  0  0  0
M  END
>  <CHROM.0>
173.96379921,68.32208878,61.52064915,5.27232034,63.94116622,65.11358339

>  <CHROM.1>
179.80098027,83.58155292,-179.68362574,-177.58145843,179.88973333,30.69579258
26.52900151,24.13177971,1.11161653,-1.16674915,1.08715036

>  <Name>

>  <RI>
3.66253e+07

>  <Rbt.Current_Directory>
/extra/banzai2/j5wagner/CELPP/2016_10_17_rdock_implementation/normal_run/tutorialVideo/tutorial_rdock_implementation/full_week_run/4-docking/5m93/SMCSS_3tmp_docking

>  <Rbt.Executable>
rbdock ($Id: //depot/dev/client3/rdock/2013.1/src/exe/rbdock.cxx#4 $)

>  <Rbt.Library>
libRbt.so (2013.1, Build901 2013/11/27)

>  <Rbt.Parameter_File>
/home/j5wagner/env_00/source/rDock/rDock_2013.1_src//data/scripts/dock.prm

>  <Rbt.Receptor>
/extra/banzai2/j5wagner/CELPP/2016_10_17_rdock_implementation/normal_run/tutorialVideo/tutorial_rdock_implementation/full_week_run/4-docking/5m93/SMCSS_3tmp_tech_prep/rDockGridGenInput.prm

>  <SCORE>
-13.2147

>  <SCORE.INTER>
4.36321

>  <SCORE.INTER.CONST>
1

>  <SCORE.INTER.POLAR>
-3.01475

>  <SCORE.INTER.REPUL>
0.00539386

>  <SCORE.INTER.ROT>
1

>  <SCORE.INTER.VDW>
8.18639

>  <SCORE.INTER.norm>
0.436321

>  <SCORE.INTRA>
-1.24185

>  <SCORE.INTRA.DIHEDRAL>
-2.88075

>  <SCORE.INTRA.DIHEDRAL.0>
5.02738

>  <SCORE.INTRA.POLAR>
0

>  <SCORE.INTRA.POLAR.0>
0

>  <SCORE.INTRA.REPUL>
0

>  <SCORE.INTRA.REPUL.0>
0

>  <SCORE.INTRA.VDW>
0.198524

>  <SCORE.INTRA.VDW.0>
-0.709724

>  <SCORE.INTRA.norm>
-0.124185

>  <SCORE.RESTR>
0.6639

>  <SCORE.RESTR.CAVITY>
0.6639

>  <SCORE.RESTR.norm>
0.06639

>  <SCORE.SYSTEM>
-17

>  <SCORE.SYSTEM.CONST>
0

>  <SCORE.SYSTEM.DIHEDRAL>
0.595039

>  <SCORE.SYSTEM.POLAR>
-4.5653

>  <SCORE.SYSTEM.VDW>
-1.77547

>  <SCORE.SYSTEM.norm>
-1.7

>  <SCORE.heavy>
10

>  <SCORE.norm>
-1.32147

$$$$

  rDOCK(R)          3D
libRbt.so/2013.1/901 2013/11/27
 14 14  0  0  0  0  0  0  0  0999 V2000
   30.6059   26.5400   26.0020 C   0  0  0  0  0  0
   31.4847   26.9060   27.0353 O   0  0  0  0  0  0
   30.4386   27.6029   25.0850 O   0  0  0  0  0  0
   30.5307   27.0627   23.7832 C   0  0  0  0  0  0
   29.3809   27.5875   22.9142 C   0  0  0  0  0  0
   29.6291   27.3194   21.5607 O   0  0  0  0  0  0
   30.5208   25.5394   23.8795 C   0  0  0  0  0  0
   31.3063   24.9646   22.8672 O   0  0  0  0  0  0
   31.0870   25.2986   25.2567 C   0  0  0  0  0  0
   32.4930   25.2554   25.2226 O   0  0  0  0  0  0
   31.5488   26.1345   27.6573 H   0  0  0  0  0  0
   29.5314   26.3384   21.4426 H   0  0  0  0  0  0
   31.1953   23.9817   22.9508 H   0  0  0  0  0  0
   32.7808   25.8861   24.5121 H   0  0  0  0  0  0
  1  2  1  0  0  0
  1  3  1  0  0  0
  3  4  1  0  0  0
  4  5  1  0  0  0
  5  6  1  0  0  0
  4  7  1  0  0  0
  7  8  1  0  0  0
  7  9  1  0  0  0
  9 10  1  0  0  0
  9  1  1  0  0  0
  2 11  1  0  0  0
  6 12  1  0  0  0
  8 13  1  0  0  0
 10 14  1  0  0  0
M  END
>  <CHROM.0>
173.21485033,-155.91112948,-55.82101393,22.88010544,63.96139772,-54.81948670

>  <CHROM.1>
178.73823650,166.18171593,70.70047501,-175.74756698,-78.61157268,30.78441866
26.39369624,24.34437067,0.85091660,-0.94606548,1.13607007

>  <Name>

>  <RI>
3.66253e+07

>  <Rbt.Current_Directory>
/extra/banzai2/j5wagner/CELPP/2016_10_17_rdock_implementation/normal_run/tutorialVideo/tutorial_rdock_implementation/full_week_run/4-docking/5m93/SMCSS_3tmp_docking

>  <Rbt.Executable>
rbdock ($Id: //depot/dev/client3/rdock/2013.1/src/exe/rbdock.cxx#4 $)

>  <Rbt.Library>
libRbt.so (2013.1, Build901 2013/11/27)

>  <Rbt.Parameter_File>
/home/j5wagner/env_00/source/rDock/rDock_2013.1_src//data/scripts/dock.prm

>  <Rbt.Receptor>
/extra/banzai2/j5wagner/CELPP/2016_10_17_rdock_implementation/normal_run/tutorialVideo/tutorial_rdock_implementation/full_week_run/4-docking/5m93/SMCSS_3tmp_tech_prep/rDockGridGenInput.prm

>  <SCORE>
-26.2844

>  <SCORE.INTER>
-12.4401

>  <SCORE.INTER.CONST>
1

>  <SCORE.INTER.POLAR>
-3.45865

>  <SCORE.INTER.REPUL>
0.0335375

>  <SCORE.INTER.ROT>
1

>  <SCORE.INTER.VDW>
-7.24836

>  <SCORE.INTER.norm>
-1.24401

>  <SCORE.INTRA>
-0.123518

>  <SCORE.INTRA.DIHEDRAL>
-1.87913

>  <SCORE.INTRA.DIHEDRAL.0>
5.02738

>  <SCORE.INTRA.POLAR>
0

>  <SCORE.INTRA.POLAR.0>
0

>  <SCORE.INTRA.REPUL>
0

>  <SCORE.INTRA.REPUL.0>
0

>  <SCORE.INTRA.VDW>
0.816049

>  <SCORE.INTRA.VDW.0>
-0.709724

>  <SCORE.INTRA.norm>
-0.0123518

>  <SCORE.RESTR>
1.65082

>  <SCORE.RESTR.CAVITY>
1.65082

>  <SCORE.RESTR.norm>
0.165082

>  <SCORE.SYSTEM>
-15.3716

>  <SCORE.SYSTEM.CONST>
0

>  <SCORE.SYSTEM.DIHEDRAL>
2.4368

>  <SCORE.SYSTEM.POLAR>
-4.53943

>  <SCORE.SYSTEM.VDW>
-1.15595

>  <SCORE.SYSTEM.norm>
-1.53716

>  <SCORE.heavy>
10

>  <SCORE.norm>
-2.62844

$$$$

  rDOCK(R)          3D
libRbt.so/2013.1/901 2013/11/27
 14 14  0  0  0  0  0  0  0  0999 V2000
   31.4792   23.6594   24.2956 C   0  0  0  0  0  0
   32.5226   22.9386   23.6907 O   0  0  0  0  0  0
   31.9831   24.5454   25.2754 O   0  0  0  0  0  0
   31.3387   25.7896   25.0982 C   0  0  0  0  0  0
   30.8451   26.3226   26.4491 C   0  0  0  0  0  0
   31.7210   27.3020   26.9381 O   0  0  0  0  0  0
   30.1941   25.6151   24.1036 C   0  0  0  0  0  0
   30.0100   26.7773   23.3370 O   0  0  0  0  0  0
   30.6614   24.4448   23.2747 C   0  0  0  0  0  0
   31.4772   24.8744   22.2117 O   0  0  0  0  0  0
   33.2155   23.5946   23.4154 H   0  0  0  0  0  0
   32.5733   26.8398   27.1521 H   0  0  0  0  0  0
   29.3260   26.5557   22.6525 H   0  0  0  0  0  0
   31.7614   24.0588   21.7224 H   0  0  0  0  0  0
  1  2  1  0  0  0
  1  3  1  0  0  0
  3  4  1  0  0  0
  4  5  1  0  0  0
  5  6  1  0  0  0
  4  7  1  0  0  0
  7  8  1  0  0  0
  7  9  1  0  0  0
  9 10  1  0  0  0
  9  1  1  0  0  0
  2 11  1  0  0  0
  6 12  1  0  0  0
  8 13  1  0  0  0
 10 14  1  0  0  0
M  END
>  <CHROM.0>
173.92819555,-42.95179851,179.37756307,2.17415455,68.00565953,64.48172982

>  <CHROM.1>
-49.73722540,100.94015126,-67.19136699,173.84118620,67.17546063,31.26572571
25.24124285,24.44348730,-1.41451940,-0.94647235,0.96882490

>  <Name>

>  <RI>
3.66253e+07

>  <Rbt.Current_Directory>
/extra/banzai2/j5wagner/CELPP/2016_10_17_rdock_implementation/normal_run/tutorialVideo/tutorial_rdock_implementation/full_week_run/4-docking/5m93/SMCSS_3tmp_docking

>  <Rbt.Executable>
rbdock ($Id: //depot/dev/client3/rdock/2013.1/src/exe/rbdock.cxx#4 $)

>  <Rbt.Library>
libRbt.so (2013.1, Build901 2013/11/27)

>  <Rbt.Parameter_File>
/home/j5wagner/env_00/source/rDock/rDock_2013.1_src//data/scripts/dock.prm

>  <Rbt.Receptor>
/extra/banzai2/j5wagner/CELPP/2016_10_17_rdock_implementation/normal_run/tutorialVideo/tutorial_rdock_implementation/full_week_run/4-docking/5m93/SMCSS_3tmp_tech_prep/rDockGridGenInput.prm

>  <SCORE>
-24.0924

>  <SCORE.INTER>
-9.96979

>  <SCORE.INTER.CONST>
1

>  <SCORE.INTER.POLAR>
-2.76041

>  <SCORE.INTER.REPUL>
0

>  <SCORE.INTER.ROT>
1

>  <SCORE.INTER.VDW>
-6.98439

>  <SCORE.INTER.norm>
-0.996979

>  <SCORE.INTRA>
0.509116

>  <SCORE.INTRA.DIHEDRAL>
0.562353

>  <SCORE.INTRA.DIHEDRAL.0>
5.02738

>  <SCORE.INTRA.POLAR>
0

>  <SCORE.INTRA.POLAR.0>
0

>  <SCORE.INTRA.REPUL>
0

>  <SCORE.INTRA.REPUL.0>
0

>  <SCORE.INTRA.VDW>
0.22794

>  <SCORE.INTRA.VDW.0>
-0.709724

>  <SCORE.INTRA.norm>
0.0509116

>  <SCORE.RESTR>
2.466

>  <SCORE.RESTR.CAVITY>
2.466

>  <SCORE.RESTR.norm>
0.2466

>  <SCORE.SYSTEM>
-17.0978

>  <SCORE.SYSTEM.CONST>
0

>  <SCORE.SYSTEM.DIHEDRAL>
1.26998

>  <SCORE.SYSTEM.POLAR>
-4.7173

>  <SCORE.SYSTEM.VDW>
-1.69394

>  <SCORE.SYSTEM.norm>
-1.70978

>  <SCORE.heavy>
10

>  <SCORE.norm>
-2.40924

$$$$

  rDOCK(R)          3D
libRbt.so/2013.1/901 2013/11/27
 14 14  0  0  0  0  0  0  0  0999 V2000
   31.7366   24.0765   24.5742 C   0  0  0  0  0  0
   32.9146   23.4863   24.0864 O   0  0  0  0  0  0
   32.0352   25.1774   25.4095 O   0  0  0  0  0  0
   31.1738   26.2359   25.0457 C   0  0  0  0  0  0
   30.5485   26.8591   26.2999 C   0  0  0  0  0  0
   31.4987   27.6228   26.9923 O   0  0  0  0  0  0
   30.1128   25.7012   24.0875 C   0  0  0  0  0  0
   29.7363   26.6805   23.1539 O   0  0  0  0  0  0
   30.8166   24.5317   23.4454 C   0  0  0  0  0  0
   31.5684   24.9466   22.3307 O   0  0  0  0  0  0
   32.7273   22.5210   23.9477 H   0  0  0  0  0  0
   32.1365   26.9807   27.4008 H   0  0  0  0  0  0
   29.3776   27.4436   23.6779 H   0  0  0  0  0  0
   32.0339   24.1411   21.9846 H   0  0  0  0  0  0
  1  2  1  0  0  0
  1  3  1  0  0  0
  3  4  1  0  0  0
  4  5  1  0  0  0
  5  6  1  0  0  0
  4  7  1  0  0  0
  7  8  1  0  0  0
  7  9  1  0  0  0
  9 10  1  0  0  0
  9  1  1  0  0  0
  2 11  1  0  0  0
  6 12  1  0  0  0
  8 13  1  0  0  0
 10 14  1  0  0  0
M  END
>  <CHROM.0>
-64.72421396,81.17742872,179.95752085,127.68815922,66.54135694,63.51145864

>  <CHROM.1>
150.07095778,73.37369254,-71.28545940,-59.76259558,65.75799748,31.25261288
25.53878234,24.53189396,-1.30846883,-0.79923690,0.99444685

>  <Name>

>  <RI>
3.66253e+07

>  <Rbt.Current_Directory>
/extra/banzai2/j5wagner/CELPP/2016_10_17_rdock_implementation/normal_run/tutorialVideo/tutorial_rdock_implementation/full_week_run/4-docking/5m93/SMCSS_3tmp_docking

>  <Rbt.Executable>
rbdock ($Id: //depot/dev/client3/rdock/2013.1/src/exe/rbdock.cxx#4 $)

>  <Rbt.Library>
libRbt.so (2013.1, Build901 2013/11/27)

>  <Rbt.Parameter_File>
/home/j5wagner/env_00/source/rDock/rDock_2013.1_src//data/scripts/dock.prm

>  <Rbt.Receptor>
/extra/banzai2/j5wagner/CELPP/2016_10_17_rdock_implementation/normal_run/tutorialVideo/tutorial_rdock_implementation/full_week_run/4-docking/5m93/SMCSS_3tmp_tech_prep/rDockGridGenInput.prm

>  <SCORE>
-12.7415

>  <SCORE.INTER>
-1.77595

>  <SCORE.INTER.CONST>
1

>  <SCORE.INTER.POLAR>
-1.32444

>  <SCORE.INTER.REPUL>
0.115219

>  <SCORE.INTER.ROT>
1

>  <SCORE.INTER.VDW>
-4.24893

>  <SCORE.INTER.norm>
-0.177595

>  <SCORE.INTRA>
0.349014

>  <SCORE.INTRA.DIHEDRAL>
0.27622

>  <SCORE.INTRA.DIHEDRAL.0>
5.02738

>  <SCORE.INTRA.POLAR>
0

>  <SCORE.INTRA.POLAR.0>
0

>  <SCORE.INTRA.REPUL>
0

>  <SCORE.INTRA.REPUL.0>
0

>  <SCORE.INTRA.VDW>
0.210904

>  <SCORE.INTRA.VDW.0>
-0.709724

>  <SCORE.INTRA.norm>
0.0349014

>  <SCORE.RESTR>
1.92133

>  <SCORE.RESTR.CAVITY>
1.92133

>  <SCORE.RESTR.norm>
0.192133

>  <SCORE.SYSTEM>
-13.2358

>  <SCORE.SYSTEM.CONST>
0

>  <SCORE.SYSTEM.DIHEDRAL>
4.41222

>  <SCORE.SYSTEM.POLAR>
-4.6024

>  <SCORE.SYSTEM.REPUL>
0.00654017

>  <SCORE.SYSTEM.VDW>
0.173516

>  <SCORE.SYSTEM.norm>
-1.32358

>  <SCORE.heavy>
10

>  <SCORE.norm>
-1.27415

$$$$

  rDOCK(R)          3D
libRbt.so/2013.1/901 2013/11/27
 14 14  0  0  0  0  0  0  0  0999 V2000
   30.1210   26.0611   21.9153 C   0  0  0  0  0  0
   30.4914   26.7155   20.7285 O   0  0  0  0  0  0
   30.9919   24.9808   22.1859 O   0  0  0  0  0  0
   31.3316   25.0385   23.5556 C   0  0  0  0  0  0
   31.1882   23.6501   24.1914 C   0  0  0  0  0  0
   32.0221   22.7274   23.5445 O   0  0  0  0  0  0
   30.4421   26.0722   24.2413 C   0  0  0  0  0  0
   31.1270   26.7140   25.2859 O   0  0  0  0  0  0
   30.1051   27.0106   23.1094 C   0  0  0  0  0  0
   31.0929   28.0025   22.9666 O   0  0  0  0  0  0
   30.1937   26.1468   19.9708 H   0  0  0  0  0  0
   32.0124   21.9009   24.0948 H   0  0  0  0  0  0
   31.3684   26.0063   25.9388 H   0  0  0  0  0  0
   31.0928   28.5287   23.8083 H   0  0  0  0  0  0
  1  2  1  0  0  0
  1  3  1  0  0  0
  3  4  1  0  0  0
  4  5  1  0  0  0
  5  6  1  0  0  0
  4  7  1  0  0  0
  7  8  1  0  0  0
  7  9  1  0  0  0
  9 10  1  0  0  0
  9  1  1  0  0  0
  2 11  1  0  0  0
  6 12  1  0  0  0
  8 13  1  0  0  0
 10 14  1  0  0  0
M  END
>  <CHROM.0>
175.68715836,177.93079376,179.44135360,16.07788026,65.87587742,63.81784563

>  <CHROM.1>
76.18365084,59.20003478,169.96768184,-61.26608299,-174.50543963,30.92590511
25.69513219,23.16397200,2.93735141,-1.31512196,0.97580007

>  <Name>

>  <RI>
3.66253e+07

>  <Rbt.Current_Directory>
/extra/banzai2/j5wagner/CELPP/2016_10_17_rdock_implementation/normal_run/tutorialVideo/tutorial_rdock_implementation/full_week_run/4-docking/5m93/SMCSS_3tmp_docking

>  <Rbt.Executable>
rbdock ($Id: //depot/dev/client3/rdock/2013.1/src/exe/rbdock.cxx#4 $)

>  <Rbt.Library>
libRbt.so (2013.1, Build901 2013/11/27)

>  <Rbt.Parameter_File>
/home/j5wagner/env_00/source/rDock/rDock_2013.1_src//data/scripts/dock.prm

>  <Rbt.Receptor>
/extra/banzai2/j5wagner/CELPP/2016_10_17_rdock_implementation/normal_run/tutorialVideo/tutorial_rdock_implementation/full_week_run/4-docking/5m93/SMCSS_3tmp_tech_prep/rDockGridGenInput.prm

>  <SCORE>
-15.4172

>  <SCORE.INTER>
1.71327

>  <SCORE.INTER.CONST>
1

>  <SCORE.INTER.POLAR>
-3.39851

>  <SCORE.INTER.REPUL>
0.35378

>  <SCORE.INTER.ROT>
1

>  <SCORE.INTER.VDW>
5.09931

>  <SCORE.INTER.norm>
0.171327

>  <SCORE.INTRA>
-1.20001

>  <SCORE.INTRA.DIHEDRAL>
-2.82518

>  <SCORE.INTRA.DIHEDRAL.0>
5.02738

>  <SCORE.INTRA.POLAR>
0

>  <SCORE.INTRA.POLAR.0>
0

>  <SCORE.INTRA.REPUL>
0

>  <SCORE.INTRA.REPUL.0>
0

>  <SCORE.INTRA.VDW>
0.212579

>  <SCORE.INTRA.VDW.0>
-0.709724

>  <SCORE.INTRA.norm>
-0.120001

>  <SCORE.RESTR>
0.10249

>  <SCORE.RESTR.CAVITY>
0.10249

>  <SCORE.RESTR.norm>
0.010249

>  <SCORE.SYSTEM>
-16.033

>  <SCORE.SYSTEM.CONST>
0

>  <SCORE.SYSTEM.DIHEDRAL>
0.699449

>  <SCORE.SYSTEM.POLAR>
-4.28554

>  <SCORE.SYSTEM.VDW>
-1.81185

>  <SCORE.SYSTEM.norm>
-1.6033

>  <SCORE.heavy>
10

>  <SCORE.norm>
-1.54172

$$$$

  rDOCK(R)          3D
libRbt.so/2013.1/901 2013/11/27
 14 14  0  0  0  0  0  0  0  0999 V2000
   34.7342   25.7067   24.7822 C   0  0  0  0  0  0
   35.8728   26.3855   24.3167 O   0  0  0  0  0  0
   33.6998   25.7418   23.8190 O   0  0  0  0  0  0
   33.1544   24.4420   23.7301 C   0  0  0  0  0  0
   31.6227   24.5111   23.7712 C   0  0  0  0  0  0
   31.1434   25.3492   22.7547 O   0  0  0  0  0  0
   33.7157   23.5927   24.8674 C   0  0  0  0  0  0
   33.8570   22.2520   24.4739 O   0  0  0  0  0  0
   35.0420   24.2565   25.1427 C   0  0  0  0  0  0
   36.0471   23.7404   24.3040 O   0  0  0  0  0  0
   36.1119   25.9943   23.4359 H   0  0  0  0  0  0
   30.1594   25.2208   22.7207 H   0  0  0  0  0  0
   34.1856   21.7595   25.2708 H   0  0  0  0  0  0
   36.8143   24.3679   24.3585 H   0  0  0  0  0  0
  1  2  1  0  0  0
  1  3  1  0  0  0
  3  4  1  0  0  0
  4  5  1  0  0  0
  5  6  1  0  0  0
  4  7  1  0  0  0
  7  8  1  0  0  0
  7  9  1  0  0  0
  9 10  1  0  0  0
  9  1  1  0  0  0
  2 11  1  0  0  0
  6 12  1  0  0  0
  8 13  1  0  0  0
 10 14  1  0  0  0
M  END
>  <CHROM.0>
-63.98575190,79.49156331,61.30504952,3.97549018,67.04082912,64.04702036

>  <CHROM.1>
-53.99278939,56.02637039,169.54189374,-177.56369180,53.51291683,33.90856160
24.59969627,24.16057927,-0.10154219,-0.29577576,-0.21019286

>  <Name>

>  <RI>
3.66253e+07

>  <Rbt.Current_Directory>
/extra/banzai2/j5wagner/CELPP/2016_10_17_rdock_implementation/normal_run/tutorialVideo/tutorial_rdock_implementation/full_week_run/4-docking/5m93/SMCSS_3tmp_docking

>  <Rbt.Executable>
rbdock ($Id: //depot/dev/client3/rdock/2013.1/src/exe/rbdock.cxx#4 $)

>  <Rbt.Library>
libRbt.so (2013.1, Build901 2013/11/27)

>  <Rbt.Parameter_File>
/home/j5wagner/env_00/source/rDock/rDock_2013.1_src//data/scripts/dock.prm

>  <Rbt.Receptor>
/extra/banzai2/j5wagner/CELPP/2016_10_17_rdock_implementation/normal_run/tutorialVideo/tutorial_rdock_implementation/full_week_run/4-docking/5m93/SMCSS_3tmp_tech_prep/rDockGridGenInput.prm

>  <SCORE>
-22.1967

>  <SCORE.INTER>
-6.13936

>  <SCORE.INTER.CONST>
1

>  <SCORE.INTER.POLAR>
-2.57449

>  <SCORE.INTER.REPUL>
0.848155

>  <SCORE.INTER.ROT>
1

>  <SCORE.INTER.VDW>
-8.02685

>  <SCORE.INTER.norm>
-0.613936

>  <SCORE.INTRA>
-1.39263

>  <SCORE.INTRA.DIHEDRAL>
-3.68833

>  <SCORE.INTRA.DIHEDRAL.0>
5.02738

>  <SCORE.INTRA.POLAR>
0

>  <SCORE.INTRA.POLAR.0>
0

>  <SCORE.INTRA.REPUL>
0

>  <SCORE.INTRA.REPUL.0>
0

>  <SCORE.INTRA.VDW>
0.451538

>  <SCORE.INTRA.VDW.0>
-0.709724

>  <SCORE.INTRA.norm>
-0.139263

>  <SCORE.RESTR>
0.760531

>  <SCORE.RESTR.CAVITY>
0.760531

>  <SCORE.RESTR.norm>
0.0760531

>  <SCORE.SYSTEM>
-15.4252

>  <SCORE.SYSTEM.CONST>
0

>  <SCORE.SYSTEM.DIHEDRAL>
1.28562

>  <SCORE.SYSTEM.POLAR>
-4.63184

>  <SCORE.SYSTEM.VDW>
-0.319798

>  <SCORE.SYSTEM.norm>
-1.54252

>  <SCORE.heavy>
10

>  <SCORE.norm>
-2.21967

$$$$

  rDOCK(R)          3D
libRbt.so/2013.1/901 2013/11/27
 14 14  0  0  0  0  0  0  0  0999 V2000
   30.6764   26.6408   23.3398 C   0  0  0  0  0  0
   29.7398   27.5178   23.9122 O   0  0  0  0  0  0
   31.8487   26.5743   24.1273 O   0  0  0  0  0  0
   32.2075   25.2134   24.2454 C   0  0  0  0  0  0
   33.7054   25.0388   23.9653 C   0  0  0  0  0  0
   34.4557   25.9317   24.7432 O   0  0  0  0  0  0
   31.3505   24.3923   23.2856 C   0  0  0  0  0  0
   31.0832   23.1179   23.8118 O   0  0  0  0  0  0
   30.1072   25.2369   23.1587 C   0  0  0  0  0  0
   29.1893   24.9389   24.1827 O   0  0  0  0  0  0
   28.9996   27.6285   23.2596 H   0  0  0  0  0  0
   35.4059   25.8052   24.4843 H   0  0  0  0  0  0
   31.9617   22.7272   24.0589 H   0  0  0  0  0  0
   28.6650   24.1536   23.8764 H   0  0  0  0  0  0
  1  2  1  0  0  0
  1  3  1  0  0  0
  3  4  1  0  0  0
  4  5  1  0  0  0
  5  6  1  0  0  0
  4  7  1  0  0  0
  7  8  1  0  0  0
  7  9  1  0  0  0
  9 10  1  0  0  0
  9  1  1  0  0  0
  2 11  1  0  0  0
  6 12  1  0  0  0
  8 13  1  0  0  0
 10 14  1  0  0  0
M  END
>  <CHROM.0>
-64.34821682,-48.10218248,60.20361751,7.00273823,67.11481816,-54.92960566

>  <CHROM.1>
171.93915826,51.26777051,-177.08228246,-52.66185463,163.68640794,31.42964681
25.46267517,23.90656972,-3.06816991,0.15514441,-3.07780005

>  <Name>

>  <RI>
3.66253e+07

>  <Rbt.Current_Directory>
/extra/banzai2/j5wagner/CELPP/2016_10_17_rdock_implementation/normal_run/tutorialVideo/tutorial_rdock_implementation/full_week_run/4-docking/5m93/SMCSS_3tmp_docking

>  <Rbt.Executable>
rbdock ($Id: //depot/dev/client3/rdock/2013.1/src/exe/rbdock.cxx#4 $)

>  <Rbt.Library>
libRbt.so (2013.1, Build901 2013/11/27)

>  <Rbt.Parameter_File>
/home/j5wagner/env_00/source/rDock/rDock_2013.1_src//data/scripts/dock.prm

>  <Rbt.Receptor>
/extra/banzai2/j5wagner/CELPP/2016_10_17_rdock_implementation/normal_run/tutorialVideo/tutorial_rdock_implementation/full_week_run/4-docking/5m93/SMCSS_3tmp_tech_prep/rDockGridGenInput.prm

>  <SCORE>
-9.21091

>  <SCORE.INTER>
7.24041

>  <SCORE.INTER.CONST>
1

>  <SCORE.INTER.POLAR>
-1.30728

>  <SCORE.INTER.REPUL>
0.043178

>  <SCORE.INTER.ROT>
1

>  <SCORE.INTER.VDW>
5.06928

>  <SCORE.INTER.norm>
0.724041

>  <SCORE.INTRA>
-0.991569

>  <SCORE.INTRA.DIHEDRAL>
-2.62626

>  <SCORE.INTRA.DIHEDRAL.0>
5.02738

>  <SCORE.INTRA.POLAR>
0

>  <SCORE.INTRA.POLAR.0>
0

>  <SCORE.INTRA.REPUL>
0

>  <SCORE.INTRA.REPUL.0>
0

>  <SCORE.INTRA.VDW>
0.321559

>  <SCORE.INTRA.VDW.0>
-0.709724

>  <SCORE.INTRA.norm>
-0.0991569

>  <SCORE.RESTR>
0.0840975

>  <SCORE.RESTR.CAVITY>
0.0840975

>  <SCORE.RESTR.norm>
0.00840975

>  <SCORE.SYSTEM>
-15.5439

>  <SCORE.SYSTEM.CONST>
0

>  <SCORE.SYSTEM.DIHEDRAL>
0.871577

>  <SCORE.SYSTEM.POLAR>
-4.74204

>  <SCORE.SYSTEM.VDW>
0.143291

>  <SCORE.SYSTEM.norm>
-1.55439

>  <SCORE.heavy>
10

>  <SCORE.norm>
-0.921091

$$$$

  rDOCK(R)          3D
libRbt.so/2013.1/901 2013/11/27
 14 14  0  0  0  0  0  0  0  0999 V2000
   30.5210   26.0981   22.9950 C   0  0  0  0  0  0
   30.9055   27.2808   22.3412 O   0  0  0  0  0  0
   31.6010   25.1883   23.0637 O   0  0  0  0  0  0
   31.6367   24.6657   24.3753 C   0  0  0  0  0  0
   31.7869   23.1399   24.3289 C   0  0  0  0  0  0
   33.0840   22.7880   23.9300 O   0  0  0  0  0  0
   30.3677   25.0897   25.1100 C   0  0  0  0  0  0
   30.6181   25.2858   26.4778 O   0  0  0  0  0  0
   29.9960   26.3686   24.4018 C   0  0  0  0  0  0
   30.6572   27.4713   24.9736 O   0  0  0  0  0  0
   30.9887   27.0715   21.3741 H   0  0  0  0  0  0
   33.1097   21.7963   23.8892 H   0  0  0  0  0  0
   31.1494   26.1214   26.5482 H   0  0  0  0  0  0
   30.6442   28.1953   24.2946 H   0  0  0  0  0  0
  1  2  1  0  0  0
  1  3  1  0  0  0
  3  4  1  0  0  0
  4  5  1  0  0  0
  5  6  1  0  0  0
  4  7  1  0  0  0
  7  8  1  0  0  0
  7  9  1  0  0  0
  9 10  1  0  0  0
  9  1  1  0  0  0
  2 11  1  0  0  0
  6 12  1  0  0  0
  8 13  1  0  0  0
 10 14  1  0  0  0
M  END
>  <CHROM.0>
173.68021160,12.36301146,-55.81827059,3.02217223,65.31276005,62.26008745

>  <CHROM.1>
73.16255424,72.31885624,-178.11110109,71.88538425,48.16111904,31.15685505
25.36151371,24.19172498,-2.58494528,-1.04257216,2.09549272

>  <Name>

>  <RI>
3.66253e+07

>  <Rbt.Current_Directory>
/extra/banzai2/j5wagner/CELPP/2016_10_17_rdock_implementation/normal_run/tutorialVideo/tutorial_rdock_implementation/full_week_run/4-docking/5m93/SMCSS_3tmp_docking

>  <Rbt.Executable>
rbdock ($Id: //depot/dev/client3/rdock/2013.1/src/exe/rbdock.cxx#4 $)

>  <Rbt.Library>
libRbt.so (2013.1, Build901 2013/11/27)

>  <Rbt.Parameter_File>
/home/j5wagner/env_00/source/rDock/rDock_2013.1_src//data/scripts/dock.prm

>  <Rbt.Receptor>
/extra/banzai2/j5wagner/CELPP/2016_10_17_rdock_implementation/normal_run/tutorialVideo/tutorial_rdock_implementation/full_week_run/4-docking/5m93/SMCSS_3tmp_tech_prep/rDockGridGenInput.prm

>  <SCORE>
-18.1263

>  <SCORE.INTER>
-5.43182

>  <SCORE.INTER.CONST>
1

>  <SCORE.INTER.POLAR>
-1.88489

>  <SCORE.INTER.REPUL>
0.0516578

>  <SCORE.INTER.ROT>
1

>  <SCORE.INTER.VDW>
-5.68147

>  <SCORE.INTER.norm>
-0.543182

>  <SCORE.INTRA>
-1.61273

>  <SCORE.INTRA.DIHEDRAL>
-2.02747

>  <SCORE.INTRA.DIHEDRAL.0>
5.02738

>  <SCORE.INTRA.POLAR>
-0.365084

>  <SCORE.INTRA.POLAR.0>
0

>  <SCORE.INTRA.REPUL>
0

>  <SCORE.INTRA.REPUL.0>
0

>  <SCORE.INTRA.VDW>
0.64229

>  <SCORE.INTRA.VDW.0>
-0.709724

>  <SCORE.INTRA.norm>
-0.161273

>  <SCORE.RESTR>
0.963423

>  <SCORE.RESTR.CAVITY>
0.963423

>  <SCORE.RESTR.norm>
0.0963423

>  <SCORE.SYSTEM>
-12.0452

>  <SCORE.SYSTEM.CONST>
0

>  <SCORE.SYSTEM.DIHEDRAL>
3.65076

>  <SCORE.SYSTEM.POLAR>
-3.83345

>  <SCORE.SYSTEM.REPUL>
0.0531157

>  <SCORE.SYSTEM.VDW>
-1.10241

>  <SCORE.SYSTEM.norm>
-1.20452

>  <SCORE.heavy>
10

>  <SCORE.norm>
-1.81263

$$$$

  rDOCK(R)          3D
libRbt.so/2013.1/901 2013/11/27
 14 14  0  0  0  0  0  0  0  0999 V2000
   30.2150   27.1556   25.5756 C   0  0  0  0  0  0
   30.6781   28.2112   26.3788 O   0  0  0  0  0  0
   30.2144   27.5257   24.2111 O   0  0  0  0  0  0
   30.7710   26.4547   23.4776 C   0  0  0  0  0  0
   29.8940   26.1408   22.2590 C   0  0  0  0  0  0
   29.5749   27.3189   21.5695 O   0  0  0  0  0  0
   30.9152   25.2473   24.4002 C   0  0  0  0  0  0
   32.0399   24.4801   24.0554 O   0  0  0  0  0  0
   31.0499   25.8915   25.7574 C   0  0  0  0  0  0
   32.3913   26.2188   26.0287 O   0  0  0  0  0  0
   30.5665   27.9344   27.3259 H   0  0  0  0  0  0
   28.8152   27.7354   22.0547 H   0  0  0  0  0  0
   31.8832   24.1535   23.1311 H   0  0  0  0  0  0
   32.8774   25.3606   26.1408 H   0  0  0  0  0  0
  1  2  1  0  0  0
  1  3  1  0  0  0
  3  4  1  0  0  0
  4  5  1  0  0  0
  5  6  1  0  0  0
  4  7  1  0  0  0
  7  8  1  0  0  0
  7  9  1  0  0  0
  9 10  1  0  0  0
  9  1  1  0  0  0
  2 11  1  0  0  0
  6 12  1  0  0  0
  8 13  1  0  0  0
 10 14  1  0  0  0
M  END
>  <CHROM.0>
173.85220770,-48.29830761,-178.80152786,3.20539965,66.26021699,-56.39070023

>  <CHROM.1>
174.06003743,47.83554715,-81.25639215,-62.11766493,179.69544043,30.79585866
26.48620991,24.37267163,0.88640980,-0.94135192,1.00792641

>  <Name>

>  <RI>
3.66253e+07

>  <Rbt.Current_Directory>
/extra/banzai2/j5wagner/CELPP/2016_10_17_rdock_implementation/normal_run/tutorialVideo/tutorial_rdock_implementation/full_week_run/4-docking/5m93/SMCSS_3tmp_docking

>  <Rbt.Executable>
rbdock ($Id: //depot/dev/client3/rdock/2013.1/src/exe/rbdock.cxx#4 $)

>  <Rbt.Library>
libRbt.so (2013.1, Build901 2013/11/27)

>  <Rbt.Parameter_File>
/home/j5wagner/env_00/source/rDock/rDock_2013.1_src//data/scripts/dock.prm

>  <Rbt.Receptor>
/extra/banzai2/j5wagner/CELPP/2016_10_17_rdock_implementation/normal_run/tutorialVideo/tutorial_rdock_implementation/full_week_run/4-docking/5m93/SMCSS_3tmp_tech_prep/rDockGridGenInput.prm

>  <SCORE>
-11.4851

>  <SCORE.INTER>
4.83227

>  <SCORE.INTER.CONST>
1

>  <SCORE.INTER.POLAR>
-2.9181

>  <SCORE.INTER.REPUL>
0.0122702

>  <SCORE.INTER.ROT>
1

>  <SCORE.INTER.VDW>
8.29246

>  <SCORE.INTER.norm>
0.483227

>  <SCORE.INTRA>
-0.672021

>  <SCORE.INTRA.DIHEDRAL>
-1.94638

>  <SCORE.INTRA.DIHEDRAL.0>
5.02738

>  <SCORE.INTRA.POLAR>
0

>  <SCORE.INTRA.POLAR.0>
0

>  <SCORE.INTRA.REPUL>
0

>  <SCORE.INTRA.REPUL.0>
0

>  <SCORE.INTRA.VDW>
0.301171

>  <SCORE.INTRA.VDW.0>
-0.709724

>  <SCORE.INTRA.norm>
-0.0672021

>  <SCORE.RESTR>
1.19986

>  <SCORE.RESTR.CAVITY>
1.19986

>  <SCORE.RESTR.norm>
0.119986

>  <SCORE.SYSTEM>
-16.8452

>  <SCORE.SYSTEM.CONST>
0

>  <SCORE.SYSTEM.DIHEDRAL>
0.786291

>  <SCORE.SYSTEM.POLAR>
-4.73632

>  <SCORE.SYSTEM.VDW>
-1.13489

>  <SCORE.SYSTEM.norm>
-1.68452

>  <SCORE.heavy>
10

>  <SCORE.norm>
-1.14851

$$$$

  rDOCK(R)          3D
libRbt.so/2013.1/901 2013/11/27
 14 14  0  0  0  0  0  0  0  0999 V2000
   30.2399   26.1722   23.4314 C   0  0  0  0  0  0
   29.8502   27.3149   22.7127 O   0  0  0  0  0  0
   31.5231   25.7379   23.0269 O   0  0  0  0  0  0
   32.2625   25.4446   24.1939 C   0  0  0  0  0  0
   32.9621   24.0877   24.0454 C   0  0  0  0  0  0
   32.0263   23.0835   23.7604 O   0  0  0  0  0  0
   31.3200   25.4696   25.3943 C   0  0  0  0  0  0
   31.9820   25.9245   26.5463 O   0  0  0  0  0  0
   30.2392   26.4174   24.9373 C   0  0  0  0  0  0
   30.5857   27.7512   25.2219 O   0  0  0  0  0  0
   29.6086   27.0204   21.7957 H   0  0  0  0  0  0
   32.4978   22.2164   23.8690 H   0  0  0  0  0  0
   32.7177   25.2808   26.7190 H   0  0  0  0  0  0
   29.7711   28.2969   25.0671 H   0  0  0  0  0  0
  1  2  1  0  0  0
  1  3  1  0  0  0
  3  4  1  0  0  0
  4  5  1  0  0  0
  5  6  1  0  0  0
  4  7  1  0  0  0
  7  8  1  0  0  0
  7  9  1  0  0  0
  9 10  1  0  0  0
  9  1  1  0  0  0
  2 11  1  0  0  0
  6 12  1  0  0  0
  8 13  1  0  0  0
 10 14  1  0  0  0
M  END
>  <CHROM.0>
174.71003136,-47.45430724,60.34053606,127.73003313,65.52350408,65.85478625

>  <CHROM.1>
74.35407852,-56.32539391,-168.09735176,-61.08998083,79.30440005,31.29575028
25.75030710,24.31884273,2.78978475,-0.94864954,1.11304022

>  <Name>

>  <RI>
3.66253e+07

>  <Rbt.Current_Directory>
/extra/banzai2/j5wagner/CELPP/2016_10_17_rdock_implementation/normal_run/tutorialVideo/tutorial_rdock_implementation/full_week_run/4-docking/5m93/SMCSS_3tmp_docking

>  <Rbt.Executable>
rbdock ($Id: //depot/dev/client3/rdock/2013.1/src/exe/rbdock.cxx#4 $)

>  <Rbt.Library>
libRbt.so (2013.1, Build901 2013/11/27)

>  <Rbt.Parameter_File>
/home/j5wagner/env_00/source/rDock/rDock_2013.1_src//data/scripts/dock.prm

>  <Rbt.Receptor>
/extra/banzai2/j5wagner/CELPP/2016_10_17_rdock_implementation/normal_run/tutorialVideo/tutorial_rdock_implementation/full_week_run/4-docking/5m93/SMCSS_3tmp_tech_prep/rDockGridGenInput.prm

>  <SCORE>
-23.5761

>  <SCORE.INTER>
-9.24223

>  <SCORE.INTER.CONST>
1

>  <SCORE.INTER.POLAR>
-2.83503

>  <SCORE.INTER.REPUL>
0.287087

>  <SCORE.INTER.ROT>
1

>  <SCORE.INTER.VDW>
-7.43858

>  <SCORE.INTER.norm>
-0.924223

>  <SCORE.INTRA>
-0.613578

>  <SCORE.INTRA.DIHEDRAL>
-1.39171

>  <SCORE.INTRA.DIHEDRAL.0>
5.02738

>  <SCORE.INTRA.POLAR>
0

>  <SCORE.INTRA.POLAR.0>
0

>  <SCORE.INTRA.REPUL>
0

>  <SCORE.INTRA.REPUL.0>
0

>  <SCORE.INTRA.VDW>
0.0822767

>  <SCORE.INTRA.VDW.0>
-0.709724

>  <SCORE.INTRA.norm>
-0.0613578

>  <SCORE.RESTR>
1.5848

>  <SCORE.RESTR.CAVITY>
1.5848

>  <SCORE.RESTR.norm>
0.15848

>  <SCORE.SYSTEM>
-15.3051

>  <SCORE.SYSTEM.CONST>
0

>  <SCORE.SYSTEM.DIHEDRAL>
3.8611

>  <SCORE.SYSTEM.POLAR>
-4.70812

>  <SCORE.SYSTEM.REPUL>
0.00653843

>  <SCORE.SYSTEM.VDW>
-1.26074

>  <SCORE.SYSTEM.norm>
-1.53051

>  <SCORE.heavy>
10

>  <SCORE.norm>
-2.35761

$$$$

  rDOCK(R)          3D
libRbt.so/2013.1/901 2013/11/27
 14 14  0  0  0  0  0  0  0  0999 V2000
   30.0355   26.0323   22.0813 C   0  0  0  0  0  0
   30.3242   26.7033   20.8811 O   0  0  0  0  0  0
   31.0656   25.1204   22.4072 O   0  0  0  0  0  0
   31.3543   25.2750   23.7811 C   0  0  0  0  0  0
   31.4256   23.9018   24.4606 C   0  0  0  0  0  0
   32.2161   23.0233   23.7064 O   0  0  0  0  0  0
   30.2879   26.1665   24.4119 C   0  0  0  0  0  0
   30.8289   26.9443   25.4485 O   0  0  0  0  0  0
   29.8307   27.0014   23.2418 C   0  0  0  0  0  0
   30.6443   28.1389   23.0865 O   0  0  0  0  0  0
   30.1830   26.0583   20.1393 H   0  0  0  0  0  0
   32.3080   22.1923   24.2422 H   0  0  0  0  0  0
   30.0784   27.4780   25.8190 H   0  0  0  0  0  0
   31.5579   27.8103   22.8800 H   0  0  0  0  0  0
  1  2  1  0  0  0
  1  3  1  0  0  0
  3  4  1  0  0  0
  4  5  1  0  0  0
  5  6  1  0  0  0
  4  7  1  0  0  0
  7  8  1  0  0  0
  7  9  1  0  0  0
  9 10  1  0  0  0
  9  1  1  0  0  0
  2 11  1  0  0  0
  6 12  1  0  0  0
  8 13  1  0  0  0
 10 14  1  0  0  0
M  END
>  <CHROM.0>
-64.10219080,-38.46855222,-57.93846540,10.49306382,67.11940834,-55.07356494

>  <CHROM.1>
73.77823279,47.38560644,173.79997004,-178.81852432,-48.57497794,30.83299521
25.83463265,23.33162953,-3.07980872,-1.20426665,1.24833040

>  <Name>

>  <RI>
3.66253e+07

>  <Rbt.Current_Directory>
/extra/banzai2/j5wagner/CELPP/2016_10_17_rdock_implementation/normal_run/tutorialVideo/tutorial_rdock_implementation/full_week_run/4-docking/5m93/SMCSS_3tmp_docking

>  <Rbt.Executable>
rbdock ($Id: //depot/dev/client3/rdock/2013.1/src/exe/rbdock.cxx#4 $)

>  <Rbt.Library>
libRbt.so (2013.1, Build901 2013/11/27)

>  <Rbt.Parameter_File>
/home/j5wagner/env_00/source/rDock/rDock_2013.1_src//data/scripts/dock.prm

>  <Rbt.Receptor>
/extra/banzai2/j5wagner/CELPP/2016_10_17_rdock_implementation/normal_run/tutorialVideo/tutorial_rdock_implementation/full_week_run/4-docking/5m93/SMCSS_3tmp_tech_prep/rDockGridGenInput.prm

>  <SCORE>
-14.0968

>  <SCORE.INTER>
1.06195

>  <SCORE.INTER.CONST>
1

>  <SCORE.INTER.POLAR>
-3.10148

>  <SCORE.INTER.REPUL>
0.390539

>  <SCORE.INTER.ROT>
1

>  <SCORE.INTER.VDW>
3.25429

>  <SCORE.INTER.norm>
0.106195

>  <SCORE.INTRA>
-0.670677

>  <SCORE.INTRA.DIHEDRAL>
-2.43767

>  <SCORE.INTRA.DIHEDRAL.0>
5.02738

>  <SCORE.INTRA.POLAR>
0

>  <SCORE.INTRA.POLAR.0>
0

>  <SCORE.INTRA.REPUL>
0

>  <SCORE.INTRA.REPUL.0>
0

>  <SCORE.INTRA.VDW>
0.548158

>  <SCORE.INTRA.VDW.0>
-0.709724

>  <SCORE.INTRA.norm>
-0.0670677

>  <SCORE.RESTR>
0.347139

>  <SCORE.RESTR.CAVITY>
0.347139

>  <SCORE.RESTR.norm>
0.0347139

>  <SCORE.SYSTEM>
-14.8352

>  <SCORE.SYSTEM.CONST>
0

>  <SCORE.SYSTEM.DIHEDRAL>
1.63943

>  <SCORE.SYSTEM.POLAR>
-4.68494

>  <SCORE.SYSTEM.VDW>
0.273869

>  <SCORE.SYSTEM.norm>
-1.48352

>  <SCORE.heavy>
10

>  <SCORE.norm>
-1.40968

$$$$

  rDOCK(R)          3D
libRbt.so/2013.1/901 2013/11/27
 14 14  0  0  0  0  0  0  0  0999 V2000
   30.5290   24.9076   24.6829 C   0  0  0  0  0  0
   29.3473   25.4704   24.1721 O   0  0  0  0  0  0
   30.7025   23.5872   24.2082 O   0  0  0  0  0  0
   32.0493   23.4516   23.8052 C   0  0  0  0  0  0
   32.6389   22.1538   24.3714 C   0  0  0  0  0  0
   31.7798   21.0752   24.1187 O   0  0  0  0  0  0
   32.8289   24.6795   24.2684 C   0  0  0  0  0  0
   33.8523   24.9993   23.3615 O   0  0  0  0  0  0
   31.7575   25.7396   24.3273 C   0  0  0  0  0  0
   31.5911   26.3575   23.0741 O   0  0  0  0  0  0
   28.6535   24.7600   24.1786 H   0  0  0  0  0  0
   30.9448   21.2519   24.6260 H   0  0  0  0  0  0
   34.3388   25.7726   23.7497 H   0  0  0  0  0  0
   30.8211   26.9778   23.1617 H   0  0  0  0  0  0
  1  2  1  0  0  0
  1  3  1  0  0  0
  3  4  1  0  0  0
  4  5  1  0  0  0
  5  6  1  0  0  0
  4  7  1  0  0  0
  7  8  1  0  0  0
  7  9  1  0  0  0
  9 10  1  0  0  0
  9  1  1  0  0  0
  2 11  1  0  0  0
  6 12  1  0  0  0
  8 13  1  0  0  0
 10 14  1  0  0  0
M  END
>  <CHROM.0>
175.53782382,-168.71000718,-179.93624867,7.86948078,64.88450891,63.04895574

>  <CHROM.1>
39.71707079,48.91970770,-64.59827779,-177.24645795,63.10036986,31.67487405
24.24572945,24.01321537,1.83664764,0.17519467,-0.13764183

>  <Name>

>  <RI>
3.66253e+07

>  <Rbt.Current_Directory>
/extra/banzai2/j5wagner/CELPP/2016_10_17_rdock_implementation/normal_run/tutorialVideo/tutorial_rdock_implementation/full_week_run/4-docking/5m93/SMCSS_3tmp_docking

>  <Rbt.Executable>
rbdock ($Id: //depot/dev/client3/rdock/2013.1/src/exe/rbdock.cxx#4 $)

>  <Rbt.Library>
libRbt.so (2013.1, Build901 2013/11/27)

>  <Rbt.Parameter_File>
/home/j5wagner/env_00/source/rDock/rDock_2013.1_src//data/scripts/dock.prm

>  <Rbt.Receptor>
/extra/banzai2/j5wagner/CELPP/2016_10_17_rdock_implementation/normal_run/tutorialVideo/tutorial_rdock_implementation/full_week_run/4-docking/5m93/SMCSS_3tmp_tech_prep/rDockGridGenInput.prm

>  <SCORE>
-27.0656

>  <SCORE.INTER>
-9.38857

>  <SCORE.INTER.CONST>
1

>  <SCORE.INTER.POLAR>
-2.38612

>  <SCORE.INTER.REPUL>
0.16753

>  <SCORE.INTER.ROT>
1

>  <SCORE.INTER.VDW>
-8.51343

>  <SCORE.INTER.norm>
-0.938857

>  <SCORE.INTRA>
-0.821416

>  <SCORE.INTRA.DIHEDRAL>
-2.21391

>  <SCORE.INTRA.DIHEDRAL.0>
5.02738

>  <SCORE.INTRA.POLAR>
0

>  <SCORE.INTRA.POLAR.0>
0

>  <SCORE.INTRA.REPUL>
0

>  <SCORE.INTRA.REPUL.0>
0

>  <SCORE.INTRA.VDW>
0.285539

>  <SCORE.INTRA.VDW.0>
-0.709724

>  <SCORE.INTRA.norm>
-0.0821416

>  <SCORE.RESTR>
0.257828

>  <SCORE.RESTR.CAVITY>
0.257828

>  <SCORE.RESTR.norm>
0.0257828

>  <SCORE.SYSTEM>
-17.1135

>  <SCORE.SYSTEM.CONST>
0

>  <SCORE.SYSTEM.DIHEDRAL>
0.651361

>  <SCORE.SYSTEM.POLAR>
-4.6348

>  <SCORE.SYSTEM.VDW>
-1.68084

>  <SCORE.SYSTEM.norm>
-1.71135

>  <SCORE.heavy>
10

>  <SCORE.norm>
-2.70656

$$$$

  rDOCK(R)          3D
libRbt.so/2013.1/901 2013/11/27
 14 14  0  0  0  0  0  0  0  0999 V2000
   32.6917   25.1218   24.2715 C   0  0  0  0  0  0
   33.7285   24.3939   23.6638 O   0  0  0  0  0  0
   32.1751   26.0949   23.3855 O   0  0  0  0  0  0
   30.7660   26.0347   23.4591 C   0  0  0  0  0  0
   30.1866   27.4476   23.6027 C   0  0  0  0  0  0
   29.4925   27.8120   22.4404 O   0  0  0  0  0  0
   30.3710   25.1370   24.6288 C   0  0  0  0  0  0
   29.1795   24.4461   24.3548 O   0  0  0  0  0  0
   31.5594   24.2153   24.7447 C   0  0  0  0  0  0
   31.4221   23.1067   23.8890 O   0  0  0  0  0  0
   34.4513   25.0373   23.4405 H   0  0  0  0  0  0
   28.9262   27.0351   22.1920 H   0  0  0  0  0  0
   29.3788   23.8324   23.6005 H   0  0  0  0  0  0
   32.2645   22.5863   23.9588 H   0  0  0  0  0  0
  1  2  1  0  0  0
  1  3  1  0  0  0
  3  4  1  0  0  0
  4  5  1  0  0  0
  5  6  1  0  0  0
  4  7  1  0  0  0
  7  8  1  0  0  0
  7  9  1  0  0  0
  9 10  1  0  0  0
  9  1  1  0  0  0
  2 11  1  0  0  0
  6 12  1  0  0  0
  8 13  1  0  0  0
 10 14  1  0  0  0
M  END
>  <CHROM.0>
173.61258499,-47.48848908,60.88413162,9.49832945,66.99428330,174.73797481

>  <CHROM.1>
61.40349987,111.32410422,45.56187241,65.44772847,63.66001473,31.15754306
25.35364953,23.79822678,-0.86288309,0.08671641,-0.36552445

>  <Name>

>  <RI>
3.66253e+07

>  <Rbt.Current_Directory>
/extra/banzai2/j5wagner/CELPP/2016_10_17_rdock_implementation/normal_run/tutorialVideo/tutorial_rdock_implementation/full_week_run/4-docking/5m93/SMCSS_3tmp_docking

>  <Rbt.Executable>
rbdock ($Id: //depot/dev/client3/rdock/2013.1/src/exe/rbdock.cxx#4 $)

>  <Rbt.Library>
libRbt.so (2013.1, Build901 2013/11/27)

>  <Rbt.Parameter_File>
/home/j5wagner/env_00/source/rDock/rDock_2013.1_src//data/scripts/dock.prm

>  <Rbt.Receptor>
/extra/banzai2/j5wagner/CELPP/2016_10_17_rdock_implementation/normal_run/tutorialVideo/tutorial_rdock_implementation/full_week_run/4-docking/5m93/SMCSS_3tmp_tech_prep/rDockGridGenInput.prm

>  <SCORE>
-29.5124

>  <SCORE.INTER>
-14.4736

>  <SCORE.INTER.CONST>
1

>  <SCORE.INTER.POLAR>
-4.17968

>  <SCORE.INTER.REPUL>
0.628431

>  <SCORE.INTER.ROT>
1

>  <SCORE.INTER.VDW>
-9.80486

>  <SCORE.INTER.norm>
-1.44736

>  <SCORE.INTRA>
1.05626

>  <SCORE.INTRA.DIHEDRAL>
1.52624

>  <SCORE.INTRA.DIHEDRAL.0>
5.02738

>  <SCORE.INTRA.POLAR>
-0.125111

>  <SCORE.INTRA.POLAR.0>
0

>  <SCORE.INTRA.REPUL>
0

>  <SCORE.INTRA.REPUL.0>
0

>  <SCORE.INTRA.VDW>
0.718517

>  <SCORE.INTRA.VDW.0>
-0.709724

>  <SCORE.INTRA.norm>
0.105626

>  <SCORE.RESTR>
0.542767

>  <SCORE.RESTR.CAVITY>
0.542767

>  <SCORE.RESTR.norm>
0.0542767

>  <SCORE.SYSTEM>
-16.6378

>  <SCORE.SYSTEM.CONST>
0

>  <SCORE.SYSTEM.DIHEDRAL>
1.07292

>  <SCORE.SYSTEM.POLAR>
-4.73818

>  <SCORE.SYSTEM.REPUL>
0.0134125

>  <SCORE.SYSTEM.VDW>
-1.13154

>  <SCORE.SYSTEM.norm>
-1.66378

>  <SCORE.heavy>
10

>  <SCORE.norm>
-2.95124

$$$$

  rDOCK(R)          3D
libRbt.so/2013.1/901 2013/11/27
 14 14  0  0  0  0  0  0  0  0999 V2000
   32.6340   25.2481   24.2998 C   0  0  0  0  0  0
   33.7744   24.6154   23.7772 O   0  0  0  0  0  0
   32.0981   26.1667   23.3681 O   0  0  0  0  0  0
   30.6986   25.9787   23.3392 C   0  0  0  0  0  0
   29.9846   27.3334   23.4251 C   0  0  0  0  0  0
   29.4087   27.6619   22.1898 O   0  0  0  0  0  0
   30.3014   25.0533   24.4863 C   0  0  0  0  0  0
   29.2008   24.2556   24.1334 O   0  0  0  0  0  0
   31.5566   24.2441   24.6986 C   0  0  0  0  0  0
   31.5838   23.1243   23.8470 O   0  0  0  0  0  0
   34.4364   25.3247   23.5655 H   0  0  0  0  0  0
   28.6704   28.2979   22.3805 H   0  0  0  0  0  0
   28.4691   24.8804   23.8893 H   0  0  0  0  0  0
   30.8725   22.5081   24.1630 H   0  0  0  0  0  0
  1  2  1  0  0  0
  1  3  1  0  0  0
  3  4  1  0  0  0
  4  5  1  0  0  0
  5  6  1  0  0  0
  4  7  1  0  0  0
  7  8  1  0  0  0
  7  9  1  0  0  0
  9 10  1  0  0  0
  9  1  1  0  0  0
  2 11  1  0  0  0
  6 12  1  0  0  0
  8 13  1  0  0  0
 10 14  1  0  0  0
M  END
>  <CHROM.0>
-64.51260297,-49.55367491,179.87346032,13.12995731,65.30199065,173.49629687

>  <CHROM.1>
59.11093692,108.15650937,156.37975904,-57.88656155,179.31814112,31.11154598
25.35806238,23.71821011,-0.82382864,-0.00242999,-0.38096346

>  <Name>

>  <RI>
3.66253e+07

>  <Rbt.Current_Directory>
/extra/banzai2/j5wagner/CELPP/2016_10_17_rdock_implementation/normal_run/tutorialVideo/tutorial_rdock_implementation/full_week_run/4-docking/5m93/SMCSS_3tmp_docking

>  <Rbt.Executable>
rbdock ($Id: //depot/dev/client3/rdock/2013.1/src/exe/rbdock.cxx#4 $)

>  <Rbt.Library>
libRbt.so (2013.1, Build901 2013/11/27)

>  <Rbt.Parameter_File>
/home/j5wagner/env_00/source/rDock/rDock_2013.1_src//data/scripts/dock.prm

>  <Rbt.Receptor>
/extra/banzai2/j5wagner/CELPP/2016_10_17_rdock_implementation/normal_run/tutorialVideo/tutorial_rdock_implementation/full_week_run/4-docking/5m93/SMCSS_3tmp_tech_prep/rDockGridGenInput.prm

>  <SCORE>
-25.8024

>  <SCORE.INTER>
-12.4015

>  <SCORE.INTER.CONST>
1

>  <SCORE.INTER.POLAR>
-3.46741

>  <SCORE.INTER.REPUL>
0.62679

>  <SCORE.INTER.ROT>
1

>  <SCORE.INTER.VDW>
-10.1463

>  <SCORE.INTER.norm>
-1.24015

>  <SCORE.INTRA>
1.43711

>  <SCORE.INTRA.DIHEDRAL>
2.5557

>  <SCORE.INTRA.DIHEDRAL.0>
5.02738

>  <SCORE.INTRA.POLAR>
0

>  <SCORE.INTRA.POLAR.0>
0

>  <SCORE.INTRA.REPUL>
0

>  <SCORE.INTRA.REPUL.0>
0

>  <SCORE.INTRA.VDW>
0.159256

>  <SCORE.INTRA.VDW.0>
-0.709724

>  <SCORE.INTRA.norm>
0.143711

>  <SCORE.RESTR>
0.51957

>  <SCORE.RESTR.CAVITY>
0.51957

>  <SCORE.RESTR.norm>
0.051957

>  <SCORE.SYSTEM>
-15.3575

>  <SCORE.SYSTEM.CONST>
0

>  <SCORE.SYSTEM.DIHEDRAL>
0.945363

>  <SCORE.SYSTEM.POLAR>
-4.71225

>  <SCORE.SYSTEM.REPUL>
0.0134125

>  <SCORE.SYSTEM.VDW>
0.124357

>  <SCORE.SYSTEM.norm>
-1.53575

>  <SCORE.heavy>
10

>  <SCORE.norm>
-2.58024

$$$$

  rDOCK(R)          3D
libRbt.so/2013.1/901 2013/11/27
 14 14  0  0  0  0  0  0  0  0999 V2000
   30.9007   24.0217   24.0654 C   0  0  0  0  0  0
   31.8659   23.0985   23.6294 O   0  0  0  0  0  0
   31.4329   24.8716   25.0622 O   0  0  0  0  0  0
   31.0412   26.1924   24.7512 C   0  0  0  0  0  0
   30.4929   26.8865   26.0043 C   0  0  0  0  0  0
   31.5160   27.0814   26.9427 O   0  0  0  0  0  0
   30.0088   26.1493   23.6278 C   0  0  0  0  0  0
   30.1221   27.2742   22.7947 O   0  0  0  0  0  0
   30.3587   24.8662   22.9160 C   0  0  0  0  0  0
   31.3563   25.0833   21.9477 O   0  0  0  0  0  0
   32.6522   23.6174   23.3153 H   0  0  0  0  0  0
   31.7987   26.1793   27.2465 H   0  0  0  0  0  0
   29.4647   27.1471   22.0618 H   0  0  0  0  0  0
   31.5648   24.1983   21.5494 H   0  0  0  0  0  0
  1  2  1  0  0  0
  1  3  1  0  0  0
  3  4  1  0  0  0
  4  5  1  0  0  0
  5  6  1  0  0  0
  4  7  1  0  0  0
  7  8  1  0  0  0
  7  9  1  0  0  0
  9 10  1  0  0  0
  9  1  1  0  0  0
  2 11  1  0  0  0
  6 12  1  0  0  0
  8 13  1  0  0  0
 10 14  1  0  0  0
M  END
>  <CHROM.0>
174.54859589,80.45511158,179.50359114,-3.45944162,64.25350096,63.46538598

>  <CHROM.1>
-56.28490761,67.33680401,-66.16624777,176.43180878,65.83508670,30.95377116
25.54728757,24.15967279,-1.49674552,-1.14236594,1.00702718

>  <Name>

>  <RI>
3.66253e+07

>  <Rbt.Current_Directory>
/extra/banzai2/j5wagner/CELPP/2016_10_17_rdock_implementation/normal_run/tutorialVideo/tutorial_rdock_implementation/full_week_run/4-docking/5m93/SMCSS_3tmp_docking

>  <Rbt.Executable>
rbdock ($Id: //depot/dev/client3/rdock/2013.1/src/exe/rbdock.cxx#4 $)

>  <Rbt.Library>
libRbt.so (2013.1, Build901 2013/11/27)

>  <Rbt.Parameter_File>
/home/j5wagner/env_00/source/rDock/rDock_2013.1_src//data/scripts/dock.prm

>  <Rbt.Receptor>
/extra/banzai2/j5wagner/CELPP/2016_10_17_rdock_implementation/normal_run/tutorialVideo/tutorial_rdock_implementation/full_week_run/4-docking/5m93/SMCSS_3tmp_tech_prep/rDockGridGenInput.prm

>  <SCORE>
-11.8453

>  <SCORE.INTER>
5.32058

>  <SCORE.INTER.CONST>
1

>  <SCORE.INTER.POLAR>
-2.80375

>  <SCORE.INTER.REPUL>
0

>  <SCORE.INTER.ROT>
1

>  <SCORE.INTER.VDW>
8.45334

>  <SCORE.INTER.norm>
0.532058

>  <SCORE.INTRA>
-1.71605

>  <SCORE.INTRA.DIHEDRAL>
-4.00983

>  <SCORE.INTRA.DIHEDRAL.0>
5.02738

>  <SCORE.INTRA.POLAR>
0

>  <SCORE.INTRA.POLAR.0>
0

>  <SCORE.INTRA.REPUL>
0

>  <SCORE.INTRA.REPUL.0>
0

>  <SCORE.INTRA.VDW>
0.288862

>  <SCORE.INTRA.VDW.0>
-0.709724

>  <SCORE.INTRA.norm>
-0.171605

>  <SCORE.RESTR>
1.19872

>  <SCORE.RESTR.CAVITY>
1.19872

>  <SCORE.RESTR.norm>
0.119872

>  <SCORE.SYSTEM>
-16.6485

>  <SCORE.SYSTEM.CONST>
0

>  <SCORE.SYSTEM.DIHEDRAL>
1.25525

>  <SCORE.SYSTEM.POLAR>
-4.61665

>  <SCORE.SYSTEM.VDW>
-1.57955

>  <SCORE.SYSTEM.norm>
-1.66485

>  <SCORE.heavy>
10

>  <SCORE.norm>
-1.18453

$$$$

  rDOCK(R)          3D
libRbt.so/2013.1/901 2013/11/27
 14 14  0  0  0  0  0  0  0  0999 V2000
   30.3399   25.6846   22.6782 C   0  0  0  0  0  0
   30.3752   26.8352   21.8727 O   0  0  0  0  0  0
   31.6164   25.0809   22.7478 O   0  0  0  0  0  0
   31.8589   24.7487   24.0989 C   0  0  0  0  0  0
   32.3858   23.3118   24.2003 C   0  0  0  0  0  0
   31.4349   22.4064   23.7088 O   0  0  0  0  0  0
   30.5690   24.9384   24.8927 C   0  0  0  0  0  0
   30.8411   25.3570   26.2054 O   0  0  0  0  0  0
   29.8465   25.9907   24.0891 C   0  0  0  0  0  0
   30.2406   27.2831   24.4820 O   0  0  0  0  0  0
   29.4403   27.1532   21.7685 H   0  0  0  0  0  0
   30.6705   22.4253   24.3422 H   0  0  0  0  0  0
   31.3652   24.6279   26.6288 H   0  0  0  0  0  0
   29.8599   27.9125   23.8155 H   0  0  0  0  0  0
  1  2  1  0  0  0
  1  3  1  0  0  0
  3  4  1  0  0  0
  4  5  1  0  0  0
  5  6  1  0  0  0
  4  7  1  0  0  0
  7  8  1  0  0  0
  7  9  1  0  0  0
  9 10  1  0  0  0
  9  1  1  0  0  0
  2 11  1  0  0  0
  6 12  1  0  0  0
  8 13  1  0  0  0
 10 14  1  0  0  0
M  END
>  <CHROM.0>
172.48588993,-48.21620181,-59.69303811,12.34734751,66.01704341,-53.84248829

>  <CHROM.1>
173.22962437,-61.55005967,-67.75110558,-62.24432273,58.31236898,30.93901203
25.18381094,23.89675793,-2.77745285,-1.15103457,1.68745537

>  <Name>

>  <RI>
3.66253e+07

>  <Rbt.Current_Directory>
/extra/banzai2/j5wagner/CELPP/2016_10_17_rdock_implementation/normal_run/tutorialVideo/tutorial_rdock_implementation/full_week_run/4-docking/5m93/SMCSS_3tmp_docking

>  <Rbt.Executable>
rbdock ($Id: //depot/dev/client3/rdock/2013.1/src/exe/rbdock.cxx#4 $)

>  <Rbt.Library>
libRbt.so (2013.1, Build901 2013/11/27)

>  <Rbt.Parameter_File>
/home/j5wagner/env_00/source/rDock/rDock_2013.1_src//data/scripts/dock.prm

>  <Rbt.Receptor>
/extra/banzai2/j5wagner/CELPP/2016_10_17_rdock_implementation/normal_run/tutorialVideo/tutorial_rdock_implementation/full_week_run/4-docking/5m93/SMCSS_3tmp_tech_prep/rDockGridGenInput.prm

>  <SCORE>
-19.6278

>  <SCORE.INTER>
-1.96211

>  <SCORE.INTER.CONST>
1

>  <SCORE.INTER.POLAR>
-3.46454

>  <SCORE.INTER.REPUL>
0.141496

>  <SCORE.INTER.ROT>
1

>  <SCORE.INTER.VDW>
2.70983

>  <SCORE.INTER.norm>
-0.196211

>  <SCORE.INTRA>
-1.62382

>  <SCORE.INTRA.DIHEDRAL>
-4.10852

>  <SCORE.INTRA.DIHEDRAL.0>
5.02738

>  <SCORE.INTRA.POLAR>
0

>  <SCORE.INTRA.POLAR.0>
0

>  <SCORE.INTRA.REPUL>
0

>  <SCORE.INTRA.REPUL.0>
0

>  <SCORE.INTRA.VDW>
0.430444

>  <SCORE.INTRA.VDW.0>
-0.709724

>  <SCORE.INTRA.norm>
-0.162382

>  <SCORE.RESTR>
0.731515

>  <SCORE.RESTR.CAVITY>
0.731515

>  <SCORE.RESTR.norm>
0.0731515

>  <SCORE.SYSTEM>
-16.7734

>  <SCORE.SYSTEM.CONST>
0

>  <SCORE.SYSTEM.DIHEDRAL>
1.18039

>  <SCORE.SYSTEM.POLAR>
-4.73654

>  <SCORE.SYSTEM.VDW>
-1.25934

>  <SCORE.SYSTEM.norm>
-1.67734

>  <SCORE.heavy>
10

>  <SCORE.norm>
-1.96278

$$$$
