
  rDOCK(R)          3D
libRbt.so/2013.1/901 2013/11/27
 36 40  0  0  0  0  0  0  0  0999 V2000
    8.5691  -35.9622   -4.2216 C   0  0  0  0  0  0
    9.0681  -37.3459   -3.7871 C   0  0  0  0  0  0
    8.6071  -34.9602   -3.0539 C   0  0  0  0  0  0
   10.0014  -34.6126   -2.7063 N   0  0  0  0  0  0
   10.0220  -33.7280   -1.5232 C   0  0  0  0  0  0
    9.1057  -32.5358   -1.7263 C   0  0  0  0  0  0
    9.5109  -31.3335   -2.3805 C   0  0  0  0  0  0
   10.9281  -31.1778   -2.8827 C   0  0  0  0  0  0
    8.5621  -30.2898   -2.5891 C   0  0  0  0  0  0
    8.9573  -29.0800   -3.2598 N   0  0  0  0  0  0
    8.6835  -27.8638   -2.8849 C   0  0  0  0  0  0
    7.8681  -27.6390   -1.7722 O   0  0  0  0  0  0
    9.2009  -26.7269   -3.6855 C   0  0  0  0  0  0
    8.6746  -25.4330   -3.5516 C   0  0  0  0  0  0
    9.1620  -24.4159   -4.3081 N   0  0  0  0  0  0
   10.1698  -24.6210   -5.1966 C   0  0  0  0  0  0
   10.6545  -23.4970   -6.0500 C   0  0  0  0  0  0
   10.6982  -25.8632   -5.3442 N   0  0  0  0  0  0
   10.2421  -26.9105   -4.6104 C   0  0  0  0  0  0
    7.2616  -30.4290   -2.0666 C   0  0  0  0  0  0
    6.9388  -31.5782   -1.4313 N   0  0  0  0  0  0
    5.7819  -31.9445   -0.8639 C   0  0  0  0  0  0
    5.9642  -33.2167   -0.3539 C   0  0  0  0  0  0
    7.2269  -33.6392   -0.6012 N   0  0  0  0  0  0
    7.7859  -32.6017   -1.2615 C   0  0  0  0  0  0
   10.6625  -33.9659   -3.8598 C   0  0  0  0  0  0
   10.7297  -34.9410   -5.0351 C   0  0  0  0  0  0
    9.3842  -35.4495   -5.3358 N   0  0  0  0  0  0
    8.8486  -35.3293   -6.6699 C   0  0  0  0  0  0
    9.1824  -34.3449   -7.3863 O   0  0  0  0  0  0
    7.9434  -36.3949   -7.2581 C   0  0  0  0  0  0
    6.5189  -36.2927   -6.7058 C   0  0  0  0  0  0
    5.6842  -35.5633   -7.7597 C   0  0  0  0  0  0
    6.5763  -35.3546   -8.9796 C   0  0  0  0  0  0
    7.8044  -36.2248   -8.7680 C   0  0  0  0  0  0
    7.6695  -26.7118   -1.4202 H   0  0  0  0  0  0
  1  2  1  0  0  0
  1  3  1  0  0  0
  3  4  1  0  0  0
  4  5  1  0  0  0
  5  6  1  0  0  0
  6  7  2  0  0  0
  7  8  1  0  0  0
  7  9  1  0  0  0
  9 10  1  0  0  0
 10 11  2  0  0  0
 11 12  1  0  0  0
 11 13  1  0  0  0
 13 14  2  0  0  0
 14 15  1  0  0  0
 15 16  2  0  0  0
 16 17  1  0  0  0
 16 18  1  0  0  0
 18 19  2  0  0  0
  9 20  2  0  0  0
 20 21  1  0  0  0
 21 22  1  0  0  0
 22 23  2  0  0  0
 23 24  1  0  0  0
 24 25  2  0  0  0
  4 26  1  0  0  0
 26 27  1  0  0  0
 27 28  1  0  0  0
 28 29  1  0  0  0
 29 30  2  0  0  0
 29 31  1  0  0  0
 31 32  1  0  0  0
 32 33  1  0  0  0
 33 34  1  0  0  0
 34 35  1  0  0  0
 28  1  1  0  0  0
 35 31  1  0  0  0
 25  6  1  0  0  0
 19 13  1  0  0  0
 25 21  1  0  0  0
 12 36  1  0  0  0
M  END
>  <CHROM.0>
-147.58465921,-1.30648420,14.72634999,61.32762750,-63.48864180,-16.71854630

>  <CHROM.1>
-52.26007205,-85.99341330,-134.05245084,176.81531663,163.33186545,77.27137955
8.66519534,-31.78496084,-4.03177120,2.30398158,-1.37350223,-2.24543002

>  <RI>
2.95534e+07

>  <Rbt.Current_Directory>
/extra/banzai2/j5wagner/CELPP/2016_10_17_rdock_implementation/normal_run/tutorialVideo/tutorial_rdock_implementation/full_week_run/4-docking/5m96/hiResHolo_5aph_docking

>  <Rbt.Executable>
rbdock ($Id: //depot/dev/client3/rdock/2013.1/src/exe/rbdock.cxx#4 $)

>  <Rbt.Library>
libRbt.so (2013.1, Build901 2013/11/27)

>  <Rbt.Parameter_File>
/home/j5wagner/env_00/source/rDock/rDock_2013.1_src//data/scripts/dock.prm

>  <Rbt.Receptor>
/extra/banzai2/j5wagner/CELPP/2016_10_17_rdock_implementation/normal_run/tutorialVideo/tutorial_rdock_implementation/full_week_run/4-docking/5m96/hiResHolo_5aph_tech_prep/rDockGridGenInput.prm

>  <SCORE>
-33.4279

>  <SCORE.INTER>
-25.71

>  <SCORE.INTER.CONST>
1

>  <SCORE.INTER.POLAR>
-1.34093

>  <SCORE.INTER.REPUL>
0

>  <SCORE.INTER.ROT>
5

>  <SCORE.INTER.VDW>
-31.5508

>  <SCORE.INTER.norm>
-0.734571

>  <SCORE.INTRA>
1.51586

>  <SCORE.INTRA.DIHEDRAL>
-3.74781

>  <SCORE.INTRA.DIHEDRAL.0>
9.74364

>  <SCORE.INTRA.POLAR>
0

>  <SCORE.INTRA.POLAR.0>
0

>  <SCORE.INTRA.REPUL>
-0.108387

>  <SCORE.INTRA.REPUL.0>
0.108387

>  <SCORE.INTRA.VDW>
3.9317

>  <SCORE.INTRA.VDW.0>
-2.87247

>  <SCORE.INTRA.norm>
0.0433102

>  <SCORE.RESTR>
0

>  <SCORE.RESTR.CAVITY>
0

>  <SCORE.RESTR.norm>
0

>  <SCORE.SYSTEM>
-9.2338

>  <SCORE.SYSTEM.CONST>
0

>  <SCORE.SYSTEM.DIHEDRAL>
2.00466

>  <SCORE.SYSTEM.POLAR>
-2.78151

>  <SCORE.SYSTEM.REPUL>
0.00654477

>  <SCORE.SYSTEM.VDW>
-0.811726

>  <SCORE.SYSTEM.norm>
-0.263823

>  <SCORE.heavy>
35

>  <SCORE.norm>
-0.955083

$$$$

  rDOCK(R)          3D
libRbt.so/2013.1/901 2013/11/27
 36 40  0  0  0  0  0  0  0  0999 V2000
    9.9262  -31.6278   -3.8730 C   0  0  0  0  0  0
   10.3467  -30.8843   -5.1470 C   0  0  0  0  0  0
    9.9266  -30.6915   -2.6513 C   0  0  0  0  0  0
    8.8172  -29.7179   -2.7365 N   0  0  0  0  0  0
    8.8913  -28.7672   -1.6080 C   0  0  0  0  0  0
    9.9000  -27.6703   -1.8934 C   0  0  0  0  0  0
   11.1708  -27.5820   -1.2494 C   0  0  0  0  0  0
   11.5636  -28.5902   -0.1939 C   0  0  0  0  0  0
   12.0849  -26.5561   -1.6304 C   0  0  0  0  0  0
   13.3735  -26.4674   -0.9970 N   0  0  0  0  0  0
   14.5260  -26.7069   -1.5530 C   0  0  0  0  0  0
   14.5872  -27.1709   -2.8699 O   0  0  0  0  0  0
   15.7639  -26.5347   -0.7534 C   0  0  0  0  0  0
   17.0361  -26.6254   -1.3384 C   0  0  0  0  0  0
   18.1503  -26.4750   -0.5766 N   0  0  0  0  0  0
   18.0620  -26.2236    0.7561 C   0  0  0  0  0  0
   19.3014  -26.1102    1.5792 C   0  0  0  0  0  0
   16.8429  -26.1290    1.3467 N   0  0  0  0  0  0
   15.7017  -26.2734    0.6254 C   0  0  0  0  0  0
   11.6817  -25.5929   -2.5756 C   0  0  0  0  0  0
   10.4559  -25.7083   -3.1347 N   0  0  0  0  0  0
    9.8577  -24.9329   -4.0488 C   0  0  0  0  0  0
    8.6117  -25.4800   -4.2934 C   0  0  0  0  0  0
    8.4348  -26.5883   -3.5354 N   0  0  0  0  0  0
    9.5898  -26.6870   -2.8418 C   0  0  0  0  0  0
    7.5212  -30.4292   -2.7425 C   0  0  0  0  0  0
    7.4227  -31.3209   -3.9802 C   0  0  0  0  0  0
    8.5866  -32.2160   -4.0410 N   0  0  0  0  0  0
    8.3959  -33.6425   -4.1410 C   0  0  0  0  0  0
    7.3853  -34.1728   -3.6013 O   0  0  0  0  0  0
    9.3478  -34.5141   -4.9376 C   0  0  0  0  0  0
    8.9719  -35.9954   -4.8403 C   0  0  0  0  0  0
    8.2093  -36.3459   -6.1189 C   0  0  0  0  0  0
    8.2503  -35.1172   -7.0224 C   0  0  0  0  0  0
    9.2855  -34.1784   -6.4247 C   0  0  0  0  0  0
   15.4547  -27.2341   -3.3860 H   0  0  0  0  0  0
  1  2  1  0  0  0
  1  3  1  0  0  0
  3  4  1  0  0  0
  4  5  1  0  0  0
  5  6  1  0  0  0
  6  7  2  0  0  0
  7  8  1  0  0  0
  7  9  1  0  0  0
  9 10  1  0  0  0
 10 11  2  0  0  0
 11 12  1  0  0  0
 11 13  1  0  0  0
 13 14  2  0  0  0
 14 15  1  0  0  0
 15 16  2  0  0  0
 16 17  1  0  0  0
 16 18  1  0  0  0
 18 19  2  0  0  0
  9 20  2  0  0  0
 20 21  1  0  0  0
 21 22  1  0  0  0
 22 23  2  0  0  0
 23 24  1  0  0  0
 24 25  2  0  0  0
  4 26  1  0  0  0
 26 27  1  0  0  0
 27 28  1  0  0  0
 28 29  1  0  0  0
 29 30  2  0  0  0
 29 31  1  0  0  0
 31 32  1  0  0  0
 32 33  1  0  0  0
 33 34  1  0  0  0
 34 35  1  0  0  0
 28  1  1  0  0  0
 35 31  1  0  0  0
 25  6  1  0  0  0
 19 13  1  0  0  0
 25 21  1  0  0  0
 12 36  1  0  0  0
M  END
>  <CHROM.0>
-148.39417950,11.26559846,12.34219064,60.83532464,179.59707827,-13.45672404

>  <CHROM.1>
81.27373918,-107.40576152,111.19825484,170.35296620,-172.43228348,177.41104609
11.34958955,-29.20784068,-2.68585072,-2.34729655,-0.34759955,0.22937120

>  <RI>
2.95534e+07

>  <Rbt.Current_Directory>
/extra/banzai2/j5wagner/CELPP/2016_10_17_rdock_implementation/normal_run/tutorialVideo/tutorial_rdock_implementation/full_week_run/4-docking/5m96/hiResHolo_5aph_docking

>  <Rbt.Executable>
rbdock ($Id: //depot/dev/client3/rdock/2013.1/src/exe/rbdock.cxx#4 $)

>  <Rbt.Library>
libRbt.so (2013.1, Build901 2013/11/27)

>  <Rbt.Parameter_File>
/home/j5wagner/env_00/source/rDock/rDock_2013.1_src//data/scripts/dock.prm

>  <Rbt.Receptor>
/extra/banzai2/j5wagner/CELPP/2016_10_17_rdock_implementation/normal_run/tutorialVideo/tutorial_rdock_implementation/full_week_run/4-docking/5m96/hiResHolo_5aph_tech_prep/rDockGridGenInput.prm

>  <SCORE>
-30.3131

>  <SCORE.INTER>
-20.1633

>  <SCORE.INTER.CONST>
1

>  <SCORE.INTER.POLAR>
-1.25338

>  <SCORE.INTER.REPUL>
0

>  <SCORE.INTER.ROT>
5

>  <SCORE.INTER.VDW>
-26.3019

>  <SCORE.INTER.norm>
-0.576096

>  <SCORE.INTRA>
-0.762343

>  <SCORE.INTRA.DIHEDRAL>
-0.811521

>  <SCORE.INTRA.DIHEDRAL.0>
9.74364

>  <SCORE.INTRA.POLAR>
0

>  <SCORE.INTRA.POLAR.0>
0

>  <SCORE.INTRA.REPUL>
-0.108387

>  <SCORE.INTRA.REPUL.0>
0.108387

>  <SCORE.INTRA.VDW>
0.185354

>  <SCORE.INTRA.VDW.0>
-2.87247

>  <SCORE.INTRA.norm>
-0.0217812

>  <SCORE.RESTR>
0

>  <SCORE.RESTR.CAVITY>
0

>  <SCORE.RESTR.norm>
0

>  <SCORE.SYSTEM>
-9.38745

>  <SCORE.SYSTEM.CONST>
0

>  <SCORE.SYSTEM.DIHEDRAL>
1.84273

>  <SCORE.SYSTEM.POLAR>
-2.78702

>  <SCORE.SYSTEM.VDW>
-0.832933

>  <SCORE.SYSTEM.norm>
-0.268213

>  <SCORE.heavy>
35

>  <SCORE.norm>
-0.86609

$$$$

  rDOCK(R)          3D
libRbt.so/2013.1/901 2013/11/27
 36 40  0  0  0  0  0  0  0  0999 V2000
    9.7086  -31.6804   -4.0264 C   0  0  0  0  0  0
   10.4394  -31.2088   -5.2898 C   0  0  0  0  0  0
    9.7141  -30.5935   -2.9366 C   0  0  0  0  0  0
    8.8342  -29.4672   -3.3148 N   0  0  0  0  0  0
    8.9273  -28.3921   -2.3058 C   0  0  0  0  0  0
   10.0181  -27.4031   -2.6719 C   0  0  0  0  0  0
   11.2949  -27.3672   -2.0346 C   0  0  0  0  0  0
   11.6117  -28.3207   -0.9053 C   0  0  0  0  0  0
   12.2853  -26.4485   -2.4908 C   0  0  0  0  0  0
   13.5798  -26.4143   -1.8642 N   0  0  0  0  0  0
   13.8756  -25.8437   -0.7320 C   0  0  0  0  0  0
   12.9062  -25.1121   -0.0404 O   0  0  0  0  0  0
   15.2645  -25.9341   -0.2183 C   0  0  0  0  0  0
   15.5549  -25.7875    1.1468 C   0  0  0  0  0  0
   16.8385  -25.8635    1.5837 N   0  0  0  0  0  0
   17.8627  -26.0928    0.7203 C   0  0  0  0  0  0
   19.2686  -26.1239    1.2194 C   0  0  0  0  0  0
   17.6087  -26.2403   -0.6055 N   0  0  0  0  0  0
   16.3417  -26.1709   -1.0883 C   0  0  0  0  0  0
   11.9552  -25.5306   -3.5068 C   0  0  0  0  0  0
   10.7215  -25.5906   -4.0573 N   0  0  0  0  0  0
   10.1823  -24.8416   -5.0283 C   0  0  0  0  0  0
    8.8958  -25.3054   -5.2325 C   0  0  0  0  0  0
    8.6355  -26.3358   -4.3931 N   0  0  0  0  0  0
    9.7822  -26.4729   -3.6924 C   0  0  0  0  0  0
    7.4406  -29.9406   -3.4538 C   0  0  0  0  0  0
    7.3504  -30.9697   -4.5806 C   0  0  0  0  0  0
    8.3190  -32.0495   -4.3453 N   0  0  0  0  0  0
    7.8761  -33.4220   -4.3119 C   0  0  0  0  0  0
    6.7168  -33.6899   -3.8897 O   0  0  0  0  0  0
    8.7476  -34.5478   -4.8351 C   0  0  0  0  0  0
    8.0664  -35.9098   -4.6751 C   0  0  0  0  0  0
    7.4688  -36.2712   -6.0358 C   0  0  0  0  0  0
    7.9077  -35.1947   -7.0239 C   0  0  0  0  0  0
    9.0003  -34.3960   -6.3322 C   0  0  0  0  0  0
   11.9541  -25.0210   -0.3695 H   0  0  0  0  0  0
  1  2  1  0  0  0
  1  3  1  0  0  0
  3  4  1  0  0  0
  4  5  1  0  0  0
  5  6  1  0  0  0
  6  7  2  0  0  0
  7  8  1  0  0  0
  7  9  1  0  0  0
  9 10  1  0  0  0
 10 11  2  0  0  0
 11 12  1  0  0  0
 11 13  1  0  0  0
 13 14  2  0  0  0
 14 15  1  0  0  0
 15 16  2  0  0  0
 16 17  1  0  0  0
 16 18  1  0  0  0
 18 19  2  0  0  0
  9 20  2  0  0  0
 20 21  1  0  0  0
 21 22  1  0  0  0
 22 23  2  0  0  0
 23 24  1  0  0  0
 24 25  2  0  0  0
  4 26  1  0  0  0
 26 27  1  0  0  0
 27 28  1  0  0  0
 28 29  1  0  0  0
 29 30  2  0  0  0
 29 31  1  0  0  0
 31 32  1  0  0  0
 32 33  1  0  0  0
 33 34  1  0  0  0
 34 35  1  0  0  0
 28  1  1  0  0  0
 35 31  1  0  0  0
 25  6  1  0  0  0
 19 13  1  0  0  0
 25 21  1  0  0  0
 12 36  1  0  0  0
M  END
>  <CHROM.0>
-149.03216100,6.88970551,13.31401169,60.23613941,64.29571777,-4.60827942

>  <CHROM.1>
90.58806881,-103.63578125,-78.78451348,1.75172459,-156.76085742,179.30265627
11.13368923,-28.94708308,-2.89981363,-2.40088720,-0.51453490,0.06552429

>  <RI>
2.95534e+07

>  <Rbt.Current_Directory>
/extra/banzai2/j5wagner/CELPP/2016_10_17_rdock_implementation/normal_run/tutorialVideo/tutorial_rdock_implementation/full_week_run/4-docking/5m96/hiResHolo_5aph_docking

>  <Rbt.Executable>
rbdock ($Id: //depot/dev/client3/rdock/2013.1/src/exe/rbdock.cxx#4 $)

>  <Rbt.Library>
libRbt.so (2013.1, Build901 2013/11/27)

>  <Rbt.Parameter_File>
/home/j5wagner/env_00/source/rDock/rDock_2013.1_src//data/scripts/dock.prm

>  <Rbt.Receptor>
/extra/banzai2/j5wagner/CELPP/2016_10_17_rdock_implementation/normal_run/tutorialVideo/tutorial_rdock_implementation/full_week_run/4-docking/5m96/hiResHolo_5aph_tech_prep/rDockGridGenInput.prm

>  <SCORE>
-29.4142

>  <SCORE.INTER>
-20.2132

>  <SCORE.INTER.CONST>
1

>  <SCORE.INTER.POLAR>
-0.85953

>  <SCORE.INTER.REPUL>
0

>  <SCORE.INTER.ROT>
5

>  <SCORE.INTER.VDW>
-27.6908

>  <SCORE.INTER.norm>
-0.57752

>  <SCORE.INTRA>
-0.0675134

>  <SCORE.INTRA.DIHEDRAL>
1.32051

>  <SCORE.INTRA.DIHEDRAL.0>
9.74364

>  <SCORE.INTRA.POLAR>
0

>  <SCORE.INTRA.POLAR.0>
0

>  <SCORE.INTRA.REPUL>
-0.108387

>  <SCORE.INTRA.REPUL.0>
0.108387

>  <SCORE.INTRA.VDW>
-0.18583

>  <SCORE.INTRA.VDW.0>
-2.87247

>  <SCORE.INTRA.norm>
-0.00192895

>  <SCORE.RESTR>
0

>  <SCORE.RESTR.CAVITY>
0

>  <SCORE.RESTR.norm>
0

>  <SCORE.SYSTEM>
-9.13349

>  <SCORE.SYSTEM.CONST>
0

>  <SCORE.SYSTEM.DIHEDRAL>
1.62882

>  <SCORE.SYSTEM.POLAR>
-2.78897

>  <SCORE.SYSTEM.VDW>
-0.46541

>  <SCORE.SYSTEM.norm>
-0.260957

>  <SCORE.heavy>
35

>  <SCORE.norm>
-0.840405

$$$$

  rDOCK(R)          3D
libRbt.so/2013.1/901 2013/11/27
 36 40  0  0  0  0  0  0  0  0999 V2000
   10.4011  -32.6487   -3.0811 C   0  0  0  0  0  0
   11.8863  -32.7275   -2.7065 C   0  0  0  0  0  0
    9.7047  -31.4750   -2.3694 C   0  0  0  0  0  0
   10.1593  -30.1818   -2.9233 N   0  0  0  0  0  0
    9.5561  -29.0668   -2.1647 C   0  0  0  0  0  0
   10.4253  -27.8260   -2.2485 C   0  0  0  0  0  0
   11.6970  -27.7108   -1.6105 C   0  0  0  0  0  0
   12.2330  -28.8439   -0.7657 C   0  0  0  0  0  0
   12.4774  -26.5327   -1.8006 C   0  0  0  0  0  0
   13.7664  -26.4130   -1.1731 N   0  0  0  0  0  0
   14.8862  -26.9167   -1.6055 C   0  0  0  0  0  0
   14.8983  -27.7259   -2.7450 O   0  0  0  0  0  0
   16.1337  -26.6664   -0.8422 C   0  0  0  0  0  0
   17.3988  -26.8924   -1.4058 C   0  0  0  0  0  0
   18.5216  -26.6650   -0.6765 N   0  0  0  0  0  0
   18.4494  -26.2063    0.6008 C   0  0  0  0  0  0
   19.6965  -26.0105    1.3965 C   0  0  0  0  0  0
   17.2376  -25.9776    1.1692 N   0  0  0  0  0  0
   16.0881  -26.1918    0.4791 C   0  0  0  0  0  0
   11.9396  -25.4651   -2.5454 C   0  0  0  0  0  0
   10.7183  -25.6172   -3.1055 N   0  0  0  0  0  0
   10.0090  -24.7612   -3.8531 C   0  0  0  0  0  0
    8.8259  -25.3952   -4.1848 C   0  0  0  0  0  0
    8.7983  -26.6375   -3.6462 N   0  0  0  0  0  0
    9.9775  -26.7274   -2.9934 C   0  0  0  0  0  0
    9.8076  -30.0954   -4.3567 C   0  0  0  0  0  0
   10.5337  -31.1907   -5.1376 C   0  0  0  0  0  0
   10.2467  -32.5013   -4.5382 N   0  0  0  0  0  0
    9.7133  -33.5662   -5.3522 C   0  0  0  0  0  0
    8.9589  -33.2855   -6.3248 O   0  0  0  0  0  0
   10.0912  -35.0146   -5.1073 C   0  0  0  0  0  0
    9.3496  -35.5947   -3.8997 C   0  0  0  0  0  0
    8.1747  -36.4068   -4.4469 C   0  0  0  0  0  0
    8.2991  -36.4158   -5.9674 C   0  0  0  0  0  0
    9.6901  -35.8938   -6.2881 C   0  0  0  0  0  0
   14.0632  -27.9288   -3.2784 H   0  0  0  0  0  0
  1  2  1  0  0  0
  1  3  1  0  0  0
  3  4  1  0  0  0
  4  5  1  0  0  0
  5  6  1  0  0  0
  6  7  2  0  0  0
  7  8  1  0  0  0
  7  9  1  0  0  0
  9 10  1  0  0  0
 10 11  2  0  0  0
 11 12  1  0  0  0
 11 13  1  0  0  0
 13 14  2  0  0  0
 14 15  1  0  0  0
 15 16  2  0  0  0
 16 17  1  0  0  0
 16 18  1  0  0  0
 18 19  2  0  0  0
  9 20  2  0  0  0
 20 21  1  0  0  0
 21 22  1  0  0  0
 22 23  2  0  0  0
 23 24  1  0  0  0
 24 25  2  0  0  0
  4 26  1  0  0  0
 26 27  1  0  0  0
 27 28  1  0  0  0
 28 29  1  0  0  0
 29 30  2  0  0  0
 29 31  1  0  0  0
 31 32  1  0  0  0
 32 33  1  0  0  0
 33 34  1  0  0  0
 34 35  1  0  0  0
 28  1  1  0  0  0
 35 31  1  0  0  0
 25  6  1  0  0  0
 19 13  1  0  0  0
 25 21  1  0  0  0
 12 36  1  0  0  0
M  END
>  <CHROM.0>
21.44302976,3.17534751,12.62755710,59.63375796,-62.14106800,20.16690643

>  <CHROM.1>
154.17281839,-69.81411620,81.57702625,1.50116430,-164.26302452,76.99520780
12.00775669,-29.42883734,-2.77724531,-2.29461077,-0.41329310,0.16767983

>  <RI>
2.95534e+07

>  <Rbt.Current_Directory>
/extra/banzai2/j5wagner/CELPP/2016_10_17_rdock_implementation/normal_run/tutorialVideo/tutorial_rdock_implementation/full_week_run/4-docking/5m96/hiResHolo_5aph_docking

>  <Rbt.Executable>
rbdock ($Id: //depot/dev/client3/rdock/2013.1/src/exe/rbdock.cxx#4 $)

>  <Rbt.Library>
libRbt.so (2013.1, Build901 2013/11/27)

>  <Rbt.Parameter_File>
/home/j5wagner/env_00/source/rDock/rDock_2013.1_src//data/scripts/dock.prm

>  <Rbt.Receptor>
/extra/banzai2/j5wagner/CELPP/2016_10_17_rdock_implementation/normal_run/tutorialVideo/tutorial_rdock_implementation/full_week_run/4-docking/5m96/hiResHolo_5aph_tech_prep/rDockGridGenInput.prm

>  <SCORE>
-28.7316

>  <SCORE.INTER>
-20.7254

>  <SCORE.INTER.CONST>
1

>  <SCORE.INTER.POLAR>
-0.856005

>  <SCORE.INTER.REPUL>
0

>  <SCORE.INTER.ROT>
5

>  <SCORE.INTER.VDW>
-28.215

>  <SCORE.INTER.norm>
-0.592154

>  <SCORE.INTRA>
-0.423102

>  <SCORE.INTRA.DIHEDRAL>
0.131136

>  <SCORE.INTRA.DIHEDRAL.0>
9.74364

>  <SCORE.INTRA.POLAR>
0

>  <SCORE.INTRA.POLAR.0>
0

>  <SCORE.INTRA.REPUL>
-0.108387

>  <SCORE.INTRA.REPUL.0>
0.108387

>  <SCORE.INTRA.VDW>
0.0532667

>  <SCORE.INTRA.VDW.0>
-2.87247

>  <SCORE.INTRA.norm>
-0.0120886

>  <SCORE.RESTR>
0

>  <SCORE.RESTR.CAVITY>
0

>  <SCORE.RESTR.norm>
0

>  <SCORE.SYSTEM>
-7.58308

>  <SCORE.SYSTEM.CONST>
0

>  <SCORE.SYSTEM.DIHEDRAL>
1.54319

>  <SCORE.SYSTEM.POLAR>
-2.27156

>  <SCORE.SYSTEM.VDW>
-0.631386

>  <SCORE.SYSTEM.norm>
-0.216659

>  <SCORE.heavy>
35

>  <SCORE.norm>
-0.820902

$$$$

  rDOCK(R)          3D
libRbt.so/2013.1/901 2013/11/27
 36 40  0  0  0  0  0  0  0  0999 V2000
    9.9724  -31.5328   -3.8711 C   0  0  0  0  0  0
   10.3394  -30.8347   -5.1866 C   0  0  0  0  0  0
    9.9896  -30.5468   -2.6893 C   0  0  0  0  0  0
    8.8583  -29.5994   -2.7802 N   0  0  0  0  0  0
    8.9460  -28.6015   -1.6944 C   0  0  0  0  0  0
    9.9906  -27.5484   -2.0140 C   0  0  0  0  0  0
   11.2524  -27.4644   -1.3521 C   0  0  0  0  0  0
   11.5983  -28.4306   -0.2422 C   0  0  0  0  0  0
   12.2020  -26.4844   -1.7654 C   0  0  0  0  0  0
   13.4818  -26.4009   -1.1138 N   0  0  0  0  0  0
   14.6153  -26.8430   -1.5772 C   0  0  0  0  0  0
   14.6542  -27.5428   -2.7863 O   0  0  0  0  0  0
   15.8498  -26.6429   -0.7789 C   0  0  0  0  0  0
   15.8004  -26.2244    0.5596 C   0  0  0  0  0  0
   16.9492  -26.0386    1.2596 N   0  0  0  0  0  0
   18.1631  -26.2624    0.6909 C   0  0  0  0  0  0
   19.4113  -26.0046    1.4669 C   0  0  0  0  0  0
   18.2387  -26.6698   -0.6022 N   0  0  0  0  0  0
   17.1172  -26.8676   -1.3414 C   0  0  0  0  0  0
   11.8427  -25.5575   -2.7632 C   0  0  0  0  0  0
   10.6236  -25.6656   -3.3383 N   0  0  0  0  0  0
   10.0634  -24.9193   -4.2995 C   0  0  0  0  0  0
    8.8065  -25.4426   -4.5399 C   0  0  0  0  0  0
    8.5850  -26.5073   -3.7327 N   0  0  0  0  0  0
    9.7249  -26.6043   -3.0143 C   0  0  0  0  0  0
    7.5777  -30.3355   -2.7176 C   0  0  0  0  0  0
    7.4610  -31.2796   -3.9142 C   0  0  0  0  0  0
    8.6409  -32.1535   -3.9739 N   0  0  0  0  0  0
    8.4769  -33.5864   -4.0097 C   0  0  0  0  0  0
    7.4941  -34.1134   -3.4181 O   0  0  0  0  0  0
    9.4227  -34.4716   -4.7987 C   0  0  0  0  0  0
    9.0602  -35.9525   -4.6564 C   0  0  0  0  0  0
    8.2797  -36.3424   -5.9126 C   0  0  0  0  0  0
    8.2962  -35.1377   -6.8485 C   0  0  0  0  0  0
    9.3335  -34.1757   -6.2928 C   0  0  0  0  0  0
   13.8298  -27.7044   -3.3495 H   0  0  0  0  0  0
  1  2  1  0  0  0
  1  3  1  0  0  0
  3  4  1  0  0  0
  4  5  1  0  0  0
  5  6  1  0  0  0
  6  7  2  0  0  0
  7  8  1  0  0  0
  7  9  1  0  0  0
  9 10  1  0  0  0
 10 11  2  0  0  0
 11 12  1  0  0  0
 11 13  1  0  0  0
 13 14  2  0  0  0
 14 15  1  0  0  0
 15 16  2  0  0  0
 16 17  1  0  0  0
 16 18  1  0  0  0
 18 19  2  0  0  0
  9 20  2  0  0  0
 20 21  1  0  0  0
 21 22  1  0  0  0
 22 23  2  0  0  0
 23 24  1  0  0  0
 24 25  2  0  0  0
  4 26  1  0  0  0
 26 27  1  0  0  0
 27 28  1  0  0  0
 28 29  1  0  0  0
 29 30  2  0  0  0
 29 31  1  0  0  0
 31 32  1  0  0  0
 32 33  1  0  0  0
 33 34  1  0  0  0
 34 35  1  0  0  0
 28  1  1  0  0  0
 35 31  1  0  0  0
 25  6  1  0  0  0
 19 13  1  0  0  0
 25 21  1  0  0  0
 12 36  1  0  0  0
M  END
>  <CHROM.0>
-148.17941108,-169.79122458,13.61582641,-177.68065290,-63.95414643,-13.60939650

>  <CHROM.1>
77.47740039,-107.72130021,102.61811887,1.92794049,12.28210055,178.77246821
11.43455019,-29.18250629,-2.71122672,-2.36849102,-0.36823370,0.18760287

>  <RI>
2.95534e+07

>  <Rbt.Current_Directory>
/extra/banzai2/j5wagner/CELPP/2016_10_17_rdock_implementation/normal_run/tutorialVideo/tutorial_rdock_implementation/full_week_run/4-docking/5m96/hiResHolo_5aph_docking

>  <Rbt.Executable>
rbdock ($Id: //depot/dev/client3/rdock/2013.1/src/exe/rbdock.cxx#4 $)

>  <Rbt.Library>
libRbt.so (2013.1, Build901 2013/11/27)

>  <Rbt.Parameter_File>
/home/j5wagner/env_00/source/rDock/rDock_2013.1_src//data/scripts/dock.prm

>  <Rbt.Receptor>
/extra/banzai2/j5wagner/CELPP/2016_10_17_rdock_implementation/normal_run/tutorialVideo/tutorial_rdock_implementation/full_week_run/4-docking/5m96/hiResHolo_5aph_tech_prep/rDockGridGenInput.prm

>  <SCORE>
-28.6486

>  <SCORE.INTER>
-20.1666

>  <SCORE.INTER.CONST>
1

>  <SCORE.INTER.POLAR>
-0.750887

>  <SCORE.INTER.REPUL>
0

>  <SCORE.INTER.ROT>
5

>  <SCORE.INTER.VDW>
-28.0136

>  <SCORE.INTER.norm>
-0.576188

>  <SCORE.INTRA>
-1.03277

>  <SCORE.INTRA.DIHEDRAL>
-0.999933

>  <SCORE.INTRA.DIHEDRAL.0>
9.74364

>  <SCORE.INTRA.POLAR>
0

>  <SCORE.INTRA.POLAR.0>
0

>  <SCORE.INTRA.REPUL>
-0.108387

>  <SCORE.INTRA.REPUL.0>
0.108387

>  <SCORE.INTRA.VDW>
0.0091332

>  <SCORE.INTRA.VDW.0>
-2.87247

>  <SCORE.INTRA.norm>
-0.0295077

>  <SCORE.RESTR>
0

>  <SCORE.RESTR.CAVITY>
0

>  <SCORE.RESTR.norm>
0

>  <SCORE.SYSTEM>
-7.44923

>  <SCORE.SYSTEM.CONST>
0

>  <SCORE.SYSTEM.DIHEDRAL>
1.97539

>  <SCORE.SYSTEM.POLAR>
-2.2547

>  <SCORE.SYSTEM.REPUL>
1.50432e-05

>  <SCORE.SYSTEM.VDW>
-0.771004

>  <SCORE.SYSTEM.norm>
-0.212835

>  <SCORE.heavy>
35

>  <SCORE.norm>
-0.818531

$$$$

  rDOCK(R)          3D
libRbt.so/2013.1/901 2013/11/27
 36 40  0  0  0  0  0  0  0  0999 V2000
    8.8298  -30.5111   -2.1120 C   0  0  0  0  0  0
   10.3007  -30.7556   -1.7526 C   0  0  0  0  0  0
    8.4654  -29.0199   -1.9997 C   0  0  0  0  0  0
    9.1076  -28.2405   -3.0795 N   0  0  0  0  0  0
    8.8271  -26.8012   -2.8995 C   0  0  0  0  0  0
   10.0632  -25.9711   -3.1916 C   0  0  0  0  0  0
   11.2973  -26.1226   -2.4905 C   0  0  0  0  0  0
   11.4181  -27.1244   -1.3650 C   0  0  0  0  0  0
   12.4290  -25.3471   -2.8788 C   0  0  0  0  0  0
   13.6809  -25.5026   -2.1875 N   0  0  0  0  0  0
   13.8973  -25.2850   -0.9223 C   0  0  0  0  0  0
   12.8768  -24.7790   -0.1125 O   0  0  0  0  0  0
   15.2523  -25.5277   -0.3687 C   0  0  0  0  0  0
   15.4877  -25.5556    1.0144 C   0  0  0  0  0  0
   16.7421  -25.7682    1.4893 N   0  0  0  0  0  0
   17.7886  -25.9691    0.6457 C   0  0  0  0  0  0
   19.1649  -26.1525    1.1923 C   0  0  0  0  0  0
   17.5876  -25.9490   -0.6970 N   0  0  0  0  0  0
   16.3514  -25.7390   -1.2176 C   0  0  0  0  0  0
   12.2841  -24.3800   -3.8925 C   0  0  0  0  0  0
   11.0847  -24.2594   -4.5053 N   0  0  0  0  0  0
   10.7071  -23.4306   -5.4877 C   0  0  0  0  0  0
    9.3809  -23.7065   -5.7650 C   0  0  0  0  0  0
    8.9354  -24.6999   -4.9595 N   0  0  0  0  0  0
   10.0134  -25.0050   -4.2048 C   0  0  0  0  0  0
    8.6263  -28.7108   -4.3959 C   0  0  0  0  0  0
    9.0279  -30.1708   -4.6056 C   0  0  0  0  0  0
    8.5503  -30.9838   -3.4785 N   0  0  0  0  0  0
    7.7283  -32.1439   -3.7224 C   0  0  0  0  0  0
    6.9443  -32.1520   -4.7119 O   0  0  0  0  0  0
    7.8317  -33.3837   -2.8546 C   0  0  0  0  0  0
    7.0703  -34.5641   -3.4642 C   0  0  0  0  0  0
    8.1049  -35.4486   -4.1618 C   0  0  0  0  0  0
    9.4808  -34.8660   -3.8535 C   0  0  0  0  0  0
    9.2788  -33.8531   -2.7383 C   0  0  0  0  0  0
   11.9579  -24.5541   -0.4702 H   0  0  0  0  0  0
  1  2  1  0  0  0
  1  3  1  0  0  0
  3  4  1  0  0  0
  4  5  1  0  0  0
  5  6  1  0  0  0
  6  7  2  0  0  0
  7  8  1  0  0  0
  7  9  1  0  0  0
  9 10  1  0  0  0
 10 11  2  0  0  0
 11 12  1  0  0  0
 11 13  1  0  0  0
 13 14  2  0  0  0
 14 15  1  0  0  0
 15 16  2  0  0  0
 16 17  1  0  0  0
 16 18  1  0  0  0
 18 19  2  0  0  0
  9 20  2  0  0  0
 20 21  1  0  0  0
 21 22  1  0  0  0
 22 23  2  0  0  0
 23 24  1  0  0  0
 24 25  2  0  0  0
  4 26  1  0  0  0
 26 27  1  0  0  0
 27 28  1  0  0  0
 28 29  1  0  0  0
 29 30  2  0  0  0
 29 31  1  0  0  0
 31 32  1  0  0  0
 32 33  1  0  0  0
 33 34  1  0  0  0
 34 35  1  0  0  0
 28  1  1  0  0  0
 35 31  1  0  0  0
 25  6  1  0  0  0
 19 13  1  0  0  0
 25 21  1  0  0  0
 12 36  1  0  0  0
M  END
>  <CHROM.0>
-148.67675860,-165.02635561,12.97894323,60.72396222,64.43399282,25.00151761

>  <CHROM.1>
138.84429485,-58.84434317,-60.84555034,-0.94168421,-167.85268022,-168.93819501
11.24038856,-28.00775325,-2.55525047,-2.50646840,-0.56260719,-0.23731657

>  <RI>
2.95534e+07

>  <Rbt.Current_Directory>
/extra/banzai2/j5wagner/CELPP/2016_10_17_rdock_implementation/normal_run/tutorialVideo/tutorial_rdock_implementation/full_week_run/4-docking/5m96/hiResHolo_5aph_docking

>  <Rbt.Executable>
rbdock ($Id: //depot/dev/client3/rdock/2013.1/src/exe/rbdock.cxx#4 $)

>  <Rbt.Library>
libRbt.so (2013.1, Build901 2013/11/27)

>  <Rbt.Parameter_File>
/home/j5wagner/env_00/source/rDock/rDock_2013.1_src//data/scripts/dock.prm

>  <Rbt.Receptor>
/extra/banzai2/j5wagner/CELPP/2016_10_17_rdock_implementation/normal_run/tutorialVideo/tutorial_rdock_implementation/full_week_run/4-docking/5m96/hiResHolo_5aph_tech_prep/rDockGridGenInput.prm

>  <SCORE>
-28.6183

>  <SCORE.INTER>
-19.5579

>  <SCORE.INTER.CONST>
1

>  <SCORE.INTER.POLAR>
-1.73437

>  <SCORE.INTER.REPUL>
0

>  <SCORE.INTER.ROT>
5

>  <SCORE.INTER.VDW>
-24.061

>  <SCORE.INTER.norm>
-0.558797

>  <SCORE.INTRA>
-0.0586423

>  <SCORE.INTRA.DIHEDRAL>
-0.733858

>  <SCORE.INTRA.DIHEDRAL.0>
9.74364

>  <SCORE.INTRA.POLAR>
0

>  <SCORE.INTRA.POLAR.0>
0

>  <SCORE.INTRA.REPUL>
-0.108387

>  <SCORE.INTRA.REPUL.0>
0.108387

>  <SCORE.INTRA.VDW>
0.850223

>  <SCORE.INTRA.VDW.0>
-2.87247

>  <SCORE.INTRA.norm>
-0.00167549

>  <SCORE.RESTR>
0

>  <SCORE.RESTR.CAVITY>
0

>  <SCORE.RESTR.norm>
0

>  <SCORE.SYSTEM>
-9.0018

>  <SCORE.SYSTEM.CONST>
0

>  <SCORE.SYSTEM.DIHEDRAL>
2.87806

>  <SCORE.SYSTEM.POLAR>
-2.7915

>  <SCORE.SYSTEM.VDW>
-0.949742

>  <SCORE.SYSTEM.norm>
-0.257194

>  <SCORE.heavy>
35

>  <SCORE.norm>
-0.817666

$$$$

  rDOCK(R)          3D
libRbt.so/2013.1/901 2013/11/27
 36 40  0  0  0  0  0  0  0  0999 V2000
    9.1956  -31.6297   -3.9914 C   0  0  0  0  0  0
    9.9130  -31.0151   -5.1996 C   0  0  0  0  0  0
    9.4211  -30.7925   -2.7196 C   0  0  0  0  0  0
    8.6933  -29.5082   -2.8013 N   0  0  0  0  0  0
    8.9990  -28.6777   -1.6183 C   0  0  0  0  0  0
   10.0163  -27.6056   -1.9615 C   0  0  0  0  0  0
   11.2886  -27.4943   -1.3240 C   0  0  0  0  0  0
   11.6745  -28.4493   -0.2176 C   0  0  0  0  0  0
   12.2107  -26.4974   -1.7587 C   0  0  0  0  0  0
   13.5008  -26.3864   -1.1319 N   0  0  0  0  0  0
   14.6341  -26.8051   -1.6167 C   0  0  0  0  0  0
   14.6645  -27.5053   -2.8258 O   0  0  0  0  0  0
   15.8793  -26.5782   -0.8424 C   0  0  0  0  0  0
   17.1464  -26.7487   -1.4207 C   0  0  0  0  0  0
   18.2672  -26.5449   -0.6814 N   0  0  0  0  0  0
   18.1909  -26.1631    0.6207 C   0  0  0  0  0  0
   19.4367  -25.9925    1.4241 C   0  0  0  0  0  0
   16.9770  -25.9892    1.2038 N   0  0  0  0  0  0
   15.8294  -26.1826    0.5045 C   0  0  0  0  0  0
   11.8143  -25.5816   -2.7526 C   0  0  0  0  0  0
   10.5868  -25.7158   -3.3040 N   0  0  0  0  0  0
    9.9939  -24.9842   -4.2568 C   0  0  0  0  0  0
    8.7432  -25.5330   -4.4714 C   0  0  0  0  0  0
    8.5581  -26.5987   -3.6565 N   0  0  0  0  0  0
    9.7131  -26.6707   -2.9596 C   0  0  0  0  0  0
    7.2401  -29.7580   -2.9090 C   0  0  0  0  0  0
    6.9372  -30.5206   -4.1987 C   0  0  0  0  0  0
    7.7512  -31.7428   -4.2555 N   0  0  0  0  0  0
    7.1168  -33.0244   -4.4455 C   0  0  0  0  0  0
    5.9572  -33.2172   -3.9851 O   0  0  0  0  0  0
    7.7846  -34.1271   -5.2448 C   0  0  0  0  0  0
    8.8412  -34.8636   -4.4166 C   0  0  0  0  0  0
    8.1949  -36.1577   -3.9197 C   0  0  0  0  0  0
    6.8125  -36.2482   -4.5589 C   0  0  0  0  0  0
    6.7759  -35.1958   -5.6550 C   0  0  0  0  0  0
   13.8347  -27.6746   -3.3788 H   0  0  0  0  0  0
  1  2  1  0  0  0
  1  3  1  0  0  0
  3  4  1  0  0  0
  4  5  1  0  0  0
  5  6  1  0  0  0
  6  7  2  0  0  0
  7  8  1  0  0  0
  7  9  1  0  0  0
  9 10  1  0  0  0
 10 11  2  0  0  0
 11 12  1  0  0  0
 11 13  1  0  0  0
 13 14  2  0  0  0
 14 15  1  0  0  0
 15 16  2  0  0  0
 16 17  1  0  0  0
 16 18  1  0  0  0
 18 19  2  0  0  0
  9 20  2  0  0  0
 20 21  1  0  0  0
 21 22  1  0  0  0
 22 23  2  0  0  0
 23 24  1  0  0  0
 24 25  2  0  0  0
  4 26  1  0  0  0
 26 27  1  0  0  0
 27 28  1  0  0  0
 28 29  1  0  0  0
 29 30  2  0  0  0
 29 31  1  0  0  0
 31 32  1  0  0  0
 32 33  1  0  0  0
 33 34  1  0  0  0
 34 35  1  0  0  0
 28  1  1  0  0  0
 35 31  1  0  0  0
 25  6  1  0  0  0
 19 13  1  0  0  0
 25 21  1  0  0  0
 12 36  1  0  0  0
M  END
>  <CHROM.0>
19.98022846,0.27706886,13.61049595,60.02490809,-177.88064340,7.27549603

>  <CHROM.1>
101.47761993,-120.01768379,102.78931194,2.73139312,-166.54192834,79.86235314
11.07358488,-29.11475996,-2.63099252,-2.47952748,-0.38568563,0.05889783

>  <RI>
2.95534e+07

>  <Rbt.Current_Directory>
/extra/banzai2/j5wagner/CELPP/2016_10_17_rdock_implementation/normal_run/tutorialVideo/tutorial_rdock_implementation/full_week_run/4-docking/5m96/hiResHolo_5aph_docking

>  <Rbt.Executable>
rbdock ($Id: //depot/dev/client3/rdock/2013.1/src/exe/rbdock.cxx#4 $)

>  <Rbt.Library>
libRbt.so (2013.1, Build901 2013/11/27)

>  <Rbt.Parameter_File>
/home/j5wagner/env_00/source/rDock/rDock_2013.1_src//data/scripts/dock.prm

>  <Rbt.Receptor>
/extra/banzai2/j5wagner/CELPP/2016_10_17_rdock_implementation/normal_run/tutorialVideo/tutorial_rdock_implementation/full_week_run/4-docking/5m96/hiResHolo_5aph_tech_prep/rDockGridGenInput.prm

>  <SCORE>
-28.0774

>  <SCORE.INTER>
-20.499

>  <SCORE.INTER.CONST>
1

>  <SCORE.INTER.POLAR>
-0.711661

>  <SCORE.INTER.REPUL>
0

>  <SCORE.INTER.ROT>
5

>  <SCORE.INTER.VDW>
-28.4793

>  <SCORE.INTER.norm>
-0.585686

>  <SCORE.INTRA>
0.19034

>  <SCORE.INTRA.DIHEDRAL>
1.05596

>  <SCORE.INTRA.DIHEDRAL.0>
9.74364

>  <SCORE.INTRA.POLAR>
0

>  <SCORE.INTRA.POLAR.0>
0

>  <SCORE.INTRA.REPUL>
-0.0527902

>  <SCORE.INTRA.REPUL.0>
0.108387

>  <SCORE.INTRA.VDW>
-0.0736901

>  <SCORE.INTRA.VDW.0>
-2.87247

>  <SCORE.INTRA.norm>
0.00543827

>  <SCORE.RESTR>
0

>  <SCORE.RESTR.CAVITY>
0

>  <SCORE.RESTR.norm>
0

>  <SCORE.SYSTEM>
-7.76871

>  <SCORE.SYSTEM.CONST>
0

>  <SCORE.SYSTEM.DIHEDRAL>
0.92562

>  <SCORE.SYSTEM.POLAR>
-2.26542

>  <SCORE.SYSTEM.VDW>
-0.529088

>  <SCORE.SYSTEM.norm>
-0.221963

>  <SCORE.heavy>
35

>  <SCORE.norm>
-0.802211

$$$$

  rDOCK(R)          3D
libRbt.so/2013.1/901 2013/11/27
 36 40  0  0  0  0  0  0  0  0999 V2000
    7.7053  -33.0864   -4.5901 C   0  0  0  0  0  0
    6.8098  -32.7691   -3.3860 C   0  0  0  0  0  0
    8.4905  -31.8443   -5.0478 C   0  0  0  0  0  0
    9.5335  -31.4903   -4.0615 N   0  0  0  0  0  0
   10.2107  -30.2418   -4.4680 C   0  0  0  0  0  0
   10.4871  -29.3622   -3.2629 C   0  0  0  0  0  0
   11.8010  -29.0411   -2.8070 C   0  0  0  0  0  0
   13.0130  -29.6126   -3.5067 C   0  0  0  0  0  0
   11.9678  -28.1498   -1.7067 C   0  0  0  0  0  0
   13.2883  -27.8091   -1.2487 N   0  0  0  0  0  0
   13.6241  -26.7414   -0.5839 C   0  0  0  0  0  0
   12.6737  -25.7517   -0.3188 O   0  0  0  0  0  0
   15.0362  -26.5662   -0.1635 C   0  0  0  0  0  0
   16.0913  -27.1806   -0.8552 C   0  0  0  0  0  0
   17.3723  -27.0103   -0.4376 N   0  0  0  0  0  0
   17.6629  -26.2387    0.6428 C   0  0  0  0  0  0
   19.0741  -26.1067    1.1095 C   0  0  0  0  0  0
   16.6606  -25.6313    1.3286 N   0  0  0  0  0  0
   15.3649  -25.7738    0.9489 C   0  0  0  0  0  0
   10.8281  -27.6702   -1.0322 C   0  0  0  0  0  0
    9.6069  -28.0279   -1.4897 N   0  0  0  0  0  0
    8.3925  -27.6996   -1.0293 C   0  0  0  0  0  0
    7.4662  -28.3173   -1.8491 C   0  0  0  0  0  0
    8.0999  -29.0267   -2.8131 N   0  0  0  0  0  0
    9.4090  -28.8203   -2.5512 C   0  0  0  0  0  0
   10.5035  -32.5986   -3.9334 C   0  0  0  0  0  0
    9.7995  -33.8477   -3.4034 C   0  0  0  0  0  0
    8.6475  -34.1684   -4.2575 N   0  0  0  0  0  0
    8.5263  -35.4812   -4.8432 C   0  0  0  0  0  0
    9.5696  -36.1227   -5.1496 O   0  0  0  0  0  0
    7.1734  -36.1384   -5.0391 C   0  0  0  0  0  0
    6.3162  -35.3740   -6.0518 C   0  0  0  0  0  0
    6.4288  -36.1192   -7.3827 C   0  0  0  0  0  0
    7.2381  -37.3867   -7.1253 C   0  0  0  0  0  0
    7.3238  -37.5430   -5.6158 C   0  0  0  0  0  0
   12.9057  -24.8832    0.1448 H   0  0  0  0  0  0
  1  2  1  0  0  0
  1  3  1  0  0  0
  3  4  1  0  0  0
  4  5  1  0  0  0
  5  6  1  0  0  0
  6  7  2  0  0  0
  7  8  1  0  0  0
  7  9  1  0  0  0
  9 10  1  0  0  0
 10 11  2  0  0  0
 11 12  1  0  0  0
 11 13  1  0  0  0
 13 14  2  0  0  0
 14 15  1  0  0  0
 15 16  2  0  0  0
 16 17  1  0  0  0
 16 18  1  0  0  0
 18 19  2  0  0  0
  9 20  2  0  0  0
 20 21  1  0  0  0
 21 22  1  0  0  0
 22 23  2  0  0  0
 23 24  1  0  0  0
 24 25  2  0  0  0
  4 26  1  0  0  0
 26 27  1  0  0  0
 27 28  1  0  0  0
 28 29  1  0  0  0
 29 30  2  0  0  0
 29 31  1  0  0  0
 31 32  1  0  0  0
 32 33  1  0  0  0
 33 34  1  0  0  0
 34 35  1  0  0  0
 28  1  1  0  0  0
 35 31  1  0  0  0
 25  6  1  0  0  0
 19 13  1  0  0  0
 25 21  1  0  0  0
 12 36  1  0  0  0
M  END
>  <CHROM.0>
-147.92690612,179.71372514,13.70483096,59.91517438,62.38222825,-8.02324452

>  <CHROM.1>
140.27719599,114.90934498,156.67301139,-176.21711393,25.34384150,65.33561080
10.89845633,-30.47847468,-2.77164038,2.23012354,0.15099516,-2.70145210

>  <RI>
2.95534e+07

>  <Rbt.Current_Directory>
/extra/banzai2/j5wagner/CELPP/2016_10_17_rdock_implementation/normal_run/tutorialVideo/tutorial_rdock_implementation/full_week_run/4-docking/5m96/hiResHolo_5aph_docking

>  <Rbt.Executable>
rbdock ($Id: //depot/dev/client3/rdock/2013.1/src/exe/rbdock.cxx#4 $)

>  <Rbt.Library>
libRbt.so (2013.1, Build901 2013/11/27)

>  <Rbt.Parameter_File>
/home/j5wagner/env_00/source/rDock/rDock_2013.1_src//data/scripts/dock.prm

>  <Rbt.Receptor>
/extra/banzai2/j5wagner/CELPP/2016_10_17_rdock_implementation/normal_run/tutorialVideo/tutorial_rdock_implementation/full_week_run/4-docking/5m96/hiResHolo_5aph_tech_prep/rDockGridGenInput.prm

>  <SCORE>
-26.8997

>  <SCORE.INTER>
-17.0003

>  <SCORE.INTER.CONST>
1

>  <SCORE.INTER.POLAR>
-0.686332

>  <SCORE.INTER.REPUL>
0

>  <SCORE.INTER.ROT>
5

>  <SCORE.INTER.VDW>
-25.0668

>  <SCORE.INTER.norm>
-0.485724

>  <SCORE.INTRA>
-0.682033

>  <SCORE.INTRA.DIHEDRAL>
-2.9361

>  <SCORE.INTRA.DIHEDRAL.0>
9.74364

>  <SCORE.INTRA.POLAR>
0

>  <SCORE.INTRA.POLAR.0>
0

>  <SCORE.INTRA.REPUL>
-0.070152

>  <SCORE.INTRA.REPUL.0>
0.108387

>  <SCORE.INTRA.VDW>
1.13678

>  <SCORE.INTRA.VDW.0>
-2.87247

>  <SCORE.INTRA.norm>
-0.0194867

>  <SCORE.RESTR>
0

>  <SCORE.RESTR.CAVITY>
0

>  <SCORE.RESTR.norm>
0

>  <SCORE.SYSTEM>
-9.21729

>  <SCORE.SYSTEM.CONST>
0

>  <SCORE.SYSTEM.DIHEDRAL>
1.64197

>  <SCORE.SYSTEM.POLAR>
-2.79961

>  <SCORE.SYSTEM.REPUL>
0.00279006

>  <SCORE.SYSTEM.VDW>
-0.533559

>  <SCORE.SYSTEM.norm>
-0.263351

>  <SCORE.heavy>
35

>  <SCORE.norm>
-0.768562

$$$$

  rDOCK(R)          3D
libRbt.so/2013.1/901 2013/11/27
 36 40  0  0  0  0  0  0  0  0999 V2000
   10.4397  -32.6597   -3.1056 C   0  0  0  0  0  0
   11.9312  -32.7627   -2.7630 C   0  0  0  0  0  0
    9.7821  -31.4638   -2.3939 C   0  0  0  0  0  0
   10.2489  -30.1867   -2.9744 N   0  0  0  0  0  0
    9.6843  -29.0508   -2.2171 C   0  0  0  0  0  0
   10.5653  -27.8228   -2.3517 C   0  0  0  0  0  0
   11.8245  -27.6812   -1.6946 C   0  0  0  0  0  0
   12.3337  -28.7691   -0.7770 C   0  0  0  0  0  0
   12.6184  -26.5212   -1.9337 C   0  0  0  0  0  0
   13.8952  -26.3757   -1.2869 N   0  0  0  0  0  0
   14.9524  -27.1076   -1.4904 C   0  0  0  0  0  0
   14.8908  -28.2051   -2.3534 O   0  0  0  0  0  0
   16.2011  -26.7943   -0.7528 C   0  0  0  0  0  0
   17.4649  -26.9801   -1.3338 C   0  0  0  0  0  0
   18.5894  -26.6953   -0.6277 N   0  0  0  0  0  0
   18.5198  -26.2166    0.6424 C   0  0  0  0  0  0
   19.7708  -25.9572    1.4133 C   0  0  0  0  0  0
   17.3092  -26.0258    1.2272 N   0  0  0  0  0  0
   16.1581  -26.2978    0.5605 C   0  0  0  0  0  0
   12.1048  -25.4930   -2.7479 C   0  0  0  0  0  0
   10.8940  -25.6675   -3.3241 N   0  0  0  0  0  0
   10.2073  -24.8496   -4.1329 C   0  0  0  0  0  0
    9.0261  -25.4927   -4.4536 C   0  0  0  0  0  0
    8.9772  -26.7027   -3.8472 N   0  0  0  0  0  0
   10.1420  -26.7644   -3.1659 C   0  0  0  0  0  0
    9.8669  -30.1114   -4.4007 C   0  0  0  0  0  0
   10.5542  -31.2303   -5.1833 C   0  0  0  0  0  0
   10.2556  -32.5274   -4.5608 N   0  0  0  0  0  0
    9.6837  -33.5919   -5.3489 C   0  0  0  0  0  0
    8.9133  -33.3087   -6.3081 O   0  0  0  0  0  0
   10.0392  -35.0442   -5.0938 C   0  0  0  0  0  0
    9.3374  -35.5858   -3.8452 C   0  0  0  0  0  0
    8.1220  -36.3797   -4.3268 C   0  0  0  0  0  0
    8.1807  -36.4181   -5.8509 C   0  0  0  0  0  0
    9.5681  -35.9342   -6.2400 C   0  0  0  0  0  0
   15.6659  -28.8423   -2.4813 H   0  0  0  0  0  0
  1  2  1  0  0  0
  1  3  1  0  0  0
  3  4  1  0  0  0
  4  5  1  0  0  0
  5  6  1  0  0  0
  6  7  2  0  0  0
  7  8  1  0  0  0
  7  9  1  0  0  0
  9 10  1  0  0  0
 10 11  2  0  0  0
 11 12  1  0  0  0
 11 13  1  0  0  0
 13 14  2  0  0  0
 14 15  1  0  0  0
 15 16  2  0  0  0
 16 17  1  0  0  0
 16 18  1  0  0  0
 18 19  2  0  0  0
  9 20  2  0  0  0
 20 21  1  0  0  0
 21 22  1  0  0  0
 22 23  2  0  0  0
 23 24  1  0  0  0
 24 25  2  0  0  0
  4 26  1  0  0  0
 26 27  1  0  0  0
 27 28  1  0  0  0
 28 29  1  0  0  0
 29 30  2  0  0  0
 29 31  1  0  0  0
 31 32  1  0  0  0
 32 33  1  0  0  0
 33 34  1  0  0  0
 34 35  1  0  0  0
 28  1  1  0  0  0
 35 31  1  0  0  0
 25  6  1  0  0  0
 19 13  1  0  0  0
 25 21  1  0  0  0
 12 36  1  0  0  0
M  END
>  <CHROM.0>
19.76258173,-175.56799818,13.13709028,-177.85301345,-178.67295739,7.85465781

>  <CHROM.1>
154.94671658,-73.56725785,66.61322783,-174.92289848,-145.80940026,75.76436999
12.07464296,-29.47234948,-2.79589653,-2.32612336,-0.45086192,0.12588266

>  <RI>
2.95534e+07

>  <Rbt.Current_Directory>
/extra/banzai2/j5wagner/CELPP/2016_10_17_rdock_implementation/normal_run/tutorialVideo/tutorial_rdock_implementation/full_week_run/4-docking/5m96/hiResHolo_5aph_docking

>  <Rbt.Executable>
rbdock ($Id: //depot/dev/client3/rdock/2013.1/src/exe/rbdock.cxx#4 $)

>  <Rbt.Library>
libRbt.so (2013.1, Build901 2013/11/27)

>  <Rbt.Parameter_File>
/home/j5wagner/env_00/source/rDock/rDock_2013.1_src//data/scripts/dock.prm

>  <Rbt.Receptor>
/extra/banzai2/j5wagner/CELPP/2016_10_17_rdock_implementation/normal_run/tutorialVideo/tutorial_rdock_implementation/full_week_run/4-docking/5m96/hiResHolo_5aph_tech_prep/rDockGridGenInput.prm

>  <SCORE>
-26.1259

>  <SCORE.INTER>
-21.2443

>  <SCORE.INTER.CONST>
1

>  <SCORE.INTER.POLAR>
-0.930249

>  <SCORE.INTER.REPUL>
0

>  <SCORE.INTER.ROT>
5

>  <SCORE.INTER.VDW>
-28.4815

>  <SCORE.INTER.norm>
-0.60698

>  <SCORE.INTRA>
1.03621

>  <SCORE.INTRA.DIHEDRAL>
2.37593

>  <SCORE.INTRA.DIHEDRAL.0>
9.74364

>  <SCORE.INTRA.POLAR>
0

>  <SCORE.INTRA.POLAR.0>
0

>  <SCORE.INTRA.REPUL>
-0.108387

>  <SCORE.INTRA.REPUL.0>
0.108387

>  <SCORE.INTRA.VDW>
0.390178

>  <SCORE.INTRA.VDW.0>
-2.87247

>  <SCORE.INTRA.norm>
0.0296059

>  <SCORE.RESTR>
0

>  <SCORE.RESTR.CAVITY>
0

>  <SCORE.RESTR.norm>
0

>  <SCORE.SYSTEM>
-5.91782

>  <SCORE.SYSTEM.CONST>
0

>  <SCORE.SYSTEM.DIHEDRAL>
0.94695

>  <SCORE.SYSTEM.POLAR>
-1.72681

>  <SCORE.SYSTEM.VDW>
-0.520158

>  <SCORE.SYSTEM.norm>
-0.169081

>  <SCORE.heavy>
35

>  <SCORE.norm>
-0.746455

$$$$

  rDOCK(R)          3D
libRbt.so/2013.1/901 2013/11/27
 36 40  0  0  0  0  0  0  0  0999 V2000
   10.1937  -32.9004   -3.3243 C   0  0  0  0  0  0
   11.6885  -32.9828   -2.9903 C   0  0  0  0  0  0
    9.5069  -31.7643   -2.5454 C   0  0  0  0  0  0
    9.9380  -30.4446   -3.0538 N   0  0  0  0  0  0
    9.3458  -29.3685   -2.2328 C   0  0  0  0  0  0
   10.2302  -28.1356   -2.2421 C   0  0  0  0  0  0
   11.5081  -28.0783   -1.6089 C   0  0  0  0  0  0
   12.0362  -29.2713   -0.8455 C   0  0  0  0  0  0
   12.3020  -26.8999   -1.7276 C   0  0  0  0  0  0
   13.5973  -26.8376   -1.1048 N   0  0  0  0  0  0
   14.5508  -25.9972   -1.3867 C   0  0  0  0  0  0
   14.3967  -25.0871   -2.4360 O   0  0  0  0  0  0
   15.8183  -26.0580   -0.6179 C   0  0  0  0  0  0
   15.8286  -26.0513    0.7853 C   0  0  0  0  0  0
   17.0066  -26.0956    1.4596 N   0  0  0  0  0  0
   18.1928  -26.1589    0.7992 C   0  0  0  0  0  0
   19.4747  -26.1581    1.5630 C   0  0  0  0  0  0
   18.2106  -26.1686   -0.5585 N   0  0  0  0  0  0
   17.0582  -26.1245   -1.2749 C   0  0  0  0  0  0
   11.7720  -25.7789   -2.3956 C   0  0  0  0  0  0
   10.5445  -25.8787   -2.9539 N   0  0  0  0  0  0
    9.8403  -24.9666   -3.6372 C   0  0  0  0  0  0
    8.6467  -25.5628   -3.9998 C   0  0  0  0  0  0
    8.6075  -26.8375   -3.5441 N   0  0  0  0  0  0
    9.7906  -26.9848   -2.9090 C   0  0  0  0  0  0
    9.5499  -30.2994   -4.4730 C   0  0  0  0  0  0
   10.2642  -31.3538   -5.3184 C   0  0  0  0  0  0
   10.0018  -32.6914   -4.7694 N   0  0  0  0  0  0
    9.4560  -33.7247   -5.6154 C   0  0  0  0  0  0
    8.6754  -33.4086   -6.5560 O   0  0  0  0  0  0
    9.8505  -35.1791   -5.4430 C   0  0  0  0  0  0
    9.1312  -35.8215   -4.2535 C   0  0  0  0  0  0
    7.9562  -36.6189   -4.8218 C   0  0  0  0  0  0
    8.0594  -36.5565   -6.3427 C   0  0  0  0  0  0
    9.4410  -36.0067   -6.6576 C   0  0  0  0  0  0
   15.1001  -24.3984   -2.6681 H   0  0  0  0  0  0
  1  2  1  0  0  0
  1  3  1  0  0  0
  3  4  1  0  0  0
  4  5  1  0  0  0
  5  6  1  0  0  0
  6  7  2  0  0  0
  7  8  1  0  0  0
  7  9  1  0  0  0
  9 10  1  0  0  0
 10 11  2  0  0  0
 11 12  1  0  0  0
 11 13  1  0  0  0
 13 14  2  0  0  0
 14 15  1  0  0  0
 15 16  2  0  0  0
 16 17  1  0  0  0
 16 18  1  0  0  0
 18 19  2  0  0  0
  9 20  2  0  0  0
 20 21  1  0  0  0
 21 22  1  0  0  0
 22 23  2  0  0  0
 23 24  1  0  0  0
 24 25  2  0  0  0
  4 26  1  0  0  0
 26 27  1  0  0  0
 27 28  1  0  0  0
 28 29  1  0  0  0
 29 30  2  0  0  0
 29 31  1  0  0  0
 31 32  1  0  0  0
 32 33  1  0  0  0
 33 34  1  0  0  0
 34 35  1  0  0  0
 28  1  1  0  0  0
 35 31  1  0  0  0
 25  6  1  0  0  0
 19 13  1  0  0  0
 25 21  1  0  0  0
 12 36  1  0  0  0
M  END
>  <CHROM.0>
-148.41900920,178.83592664,13.73264180,-178.17074519,-63.02934898,4.95770936

>  <CHROM.1>
152.03988510,-69.04377537,161.87777027,177.96276262,-51.45731159,77.66144084
11.77268884,-29.44236683,-2.80321066,-2.26396732,-0.43977502,0.17931232

>  <RI>
2.95534e+07

>  <Rbt.Current_Directory>
/extra/banzai2/j5wagner/CELPP/2016_10_17_rdock_implementation/normal_run/tutorialVideo/tutorial_rdock_implementation/full_week_run/4-docking/5m96/hiResHolo_5aph_docking

>  <Rbt.Executable>
rbdock ($Id: //depot/dev/client3/rdock/2013.1/src/exe/rbdock.cxx#4 $)

>  <Rbt.Library>
libRbt.so (2013.1, Build901 2013/11/27)

>  <Rbt.Parameter_File>
/home/j5wagner/env_00/source/rDock/rDock_2013.1_src//data/scripts/dock.prm

>  <Rbt.Receptor>
/extra/banzai2/j5wagner/CELPP/2016_10_17_rdock_implementation/normal_run/tutorialVideo/tutorial_rdock_implementation/full_week_run/4-docking/5m96/hiResHolo_5aph_tech_prep/rDockGridGenInput.prm

>  <SCORE>
-25.8101

>  <SCORE.INTER>
-19.3845

>  <SCORE.INTER.CONST>
1

>  <SCORE.INTER.POLAR>
-0.833239

>  <SCORE.INTER.REPUL>
0

>  <SCORE.INTER.ROT>
5

>  <SCORE.INTER.VDW>
-26.9515

>  <SCORE.INTER.norm>
-0.553842

>  <SCORE.INTRA>
1.04051

>  <SCORE.INTRA.DIHEDRAL>
1.38279

>  <SCORE.INTRA.DIHEDRAL.0>
9.74364

>  <SCORE.INTRA.POLAR>
0

>  <SCORE.INTRA.POLAR.0>
0

>  <SCORE.INTRA.REPUL>
-0.108387

>  <SCORE.INTRA.REPUL.0>
0.108387

>  <SCORE.INTRA.VDW>
0.891051

>  <SCORE.INTRA.VDW.0>
-2.87247

>  <SCORE.INTRA.norm>
0.0297289

>  <SCORE.RESTR>
0

>  <SCORE.RESTR.CAVITY>
0

>  <SCORE.RESTR.norm>
0

>  <SCORE.SYSTEM>
-7.46609

>  <SCORE.SYSTEM.CONST>
0

>  <SCORE.SYSTEM.DIHEDRAL>
1.66338

>  <SCORE.SYSTEM.POLAR>
-2.25006

>  <SCORE.SYSTEM.VDW>
-0.647575

>  <SCORE.SYSTEM.norm>
-0.213317

>  <SCORE.heavy>
35

>  <SCORE.norm>
-0.73743

$$$$

  rDOCK(R)          3D
libRbt.so/2013.1/901 2013/11/27
 36 40  0  0  0  0  0  0  0  0999 V2000
   10.1693  -32.7160   -3.3018 C   0  0  0  0  0  0
   11.6496  -32.8611   -2.9276 C   0  0  0  0  0  0
    9.5591  -31.4412   -2.6921 C   0  0  0  0  0  0
   10.0930  -30.2340   -3.3581 N   0  0  0  0  0  0
    9.5722  -29.0198   -2.6968 C   0  0  0  0  0  0
   10.5238  -27.8533   -2.8865 C   0  0  0  0  0  0
   11.7909  -27.7568   -2.2365 C   0  0  0  0  0  0
   12.2375  -28.8307   -1.2709 C   0  0  0  0  0  0
   12.6512  -26.6576   -2.5275 C   0  0  0  0  0  0
   13.9360  -26.5589   -1.8880 N   0  0  0  0  0  0
   14.1648  -26.1562   -0.6713 C   0  0  0  0  0  0
   13.1137  -25.6898    0.1230 O   0  0  0  0  0  0
   15.5588  -26.1471   -0.1632 C   0  0  0  0  0  0
   15.8417  -26.0324    1.2064 C   0  0  0  0  0  0
   17.1290  -26.0149    1.6385 N   0  0  0  0  0  0
   18.1652  -26.1190    0.7653 C   0  0  0  0  0  0
   19.5708  -26.0488    1.2612 C   0  0  0  0  0  0
   17.9188  -26.2331   -0.5652 N   0  0  0  0  0  0
   16.6483  -26.2539   -1.0434 C   0  0  0  0  0  0
   12.1969  -25.6385   -3.3870 C   0  0  0  0  0  0
   10.9763  -25.7668   -3.9548 N   0  0  0  0  0  0
   10.3368  -24.9470   -4.7995 C   0  0  0  0  0  0
    9.1189  -25.5330   -5.0908 C   0  0  0  0  0  0
    9.0004  -26.7096   -4.4307 N   0  0  0  0  0  0
   10.1614  -26.8093   -3.7474 C   0  0  0  0  0  0
    9.7339  -30.2485   -4.7921 C   0  0  0  0  0  0
   10.3784  -31.4532   -5.4778 C   0  0  0  0  0  0
   10.0109  -32.6850   -4.7656 N   0  0  0  0  0  0
    9.4003  -33.7782   -5.4820 C   0  0  0  0  0  0
    8.6569  -33.5329   -6.4724 O   0  0  0  0  0  0
    9.6838  -35.2221   -5.1137 C   0  0  0  0  0  0
    8.9008  -35.6512   -3.8697 C   0  0  0  0  0  0
    7.6792  -36.4303   -4.3595 C   0  0  0  0  0  0
    7.8103  -36.5742   -5.8727 C   0  0  0  0  0  0
    9.2333  -36.1698   -6.2213 C   0  0  0  0  0  0
   12.1607  -25.6347   -0.2112 H   0  0  0  0  0  0
  1  2  1  0  0  0
  1  3  1  0  0  0
  3  4  1  0  0  0
  4  5  1  0  0  0
  5  6  1  0  0  0
  6  7  2  0  0  0
  7  8  1  0  0  0
  7  9  1  0  0  0
  9 10  1  0  0  0
 10 11  2  0  0  0
 11 12  1  0  0  0
 11 13  1  0  0  0
 13 14  2  0  0  0
 14 15  1  0  0  0
 15 16  2  0  0  0
 16 17  1  0  0  0
 16 18  1  0  0  0
 18 19  2  0  0  0
  9 20  2  0  0  0
 20 21  1  0  0  0
 21 22  1  0  0  0
 22 23  2  0  0  0
 23 24  1  0  0  0
 24 25  2  0  0  0
  4 26  1  0  0  0
 26 27  1  0  0  0
 27 28  1  0  0  0
 28 29  1  0  0  0
 29 30  2  0  0  0
 29 31  1  0  0  0
 31 32  1  0  0  0
 32 33  1  0  0  0
 33 34  1  0  0  0
 34 35  1  0  0  0
 28  1  1  0  0  0
 35 31  1  0  0  0
 25  6  1  0  0  0
 19 13  1  0  0  0
 25 21  1  0  0  0
 12 36  1  0  0  0
M  END
>  <CHROM.0>
14.27413282,178.32092892,12.48394214,-58.12405461,-64.90176139,3.21839729

>  <CHROM.1>
153.93390936,-71.35405029,-78.08902242,-0.91935300,-164.76205438,77.85881234
11.78992073,-29.37720389,-2.89574336,-2.34422144,-0.58659532,0.02589214

>  <RI>
2.95534e+07

>  <Rbt.Current_Directory>
/extra/banzai2/j5wagner/CELPP/2016_10_17_rdock_implementation/normal_run/tutorialVideo/tutorial_rdock_implementation/full_week_run/4-docking/5m96/hiResHolo_5aph_docking

>  <Rbt.Executable>
rbdock ($Id: //depot/dev/client3/rdock/2013.1/src/exe/rbdock.cxx#4 $)

>  <Rbt.Library>
libRbt.so (2013.1, Build901 2013/11/27)

>  <Rbt.Parameter_File>
/home/j5wagner/env_00/source/rDock/rDock_2013.1_src//data/scripts/dock.prm

>  <Rbt.Receptor>
/extra/banzai2/j5wagner/CELPP/2016_10_17_rdock_implementation/normal_run/tutorialVideo/tutorial_rdock_implementation/full_week_run/4-docking/5m96/hiResHolo_5aph_tech_prep/rDockGridGenInput.prm

>  <SCORE>
-25.644

>  <SCORE.INTER>
-20.029

>  <SCORE.INTER.CONST>
1

>  <SCORE.INTER.POLAR>
-0.863512

>  <SCORE.INTER.REPUL>
0

>  <SCORE.INTER.ROT>
5

>  <SCORE.INTER.VDW>
-27.4931

>  <SCORE.INTER.norm>
-0.572258

>  <SCORE.INTRA>
-0.463284

>  <SCORE.INTRA.DIHEDRAL>
0.170158

>  <SCORE.INTRA.DIHEDRAL.0>
9.74364

>  <SCORE.INTRA.POLAR>
0

>  <SCORE.INTRA.POLAR.0>
0

>  <SCORE.INTRA.REPUL>
-0.108387

>  <SCORE.INTRA.REPUL.0>
0.108387

>  <SCORE.INTRA.VDW>
-0.00642715

>  <SCORE.INTRA.VDW.0>
-2.87247

>  <SCORE.INTRA.norm>
-0.0132367

>  <SCORE.RESTR>
0

>  <SCORE.RESTR.CAVITY>
0

>  <SCORE.RESTR.norm>
0

>  <SCORE.SYSTEM>
-5.15171

>  <SCORE.SYSTEM.CONST>
0

>  <SCORE.SYSTEM.DIHEDRAL>
0.658441

>  <SCORE.SYSTEM.POLAR>
-1.67286

>  <SCORE.SYSTEM.REPUL>
0.00675475

>  <SCORE.SYSTEM.VDW>
0.17303

>  <SCORE.SYSTEM.norm>
-0.147192

>  <SCORE.heavy>
35

>  <SCORE.norm>
-0.732687

$$$$

  rDOCK(R)          3D
libRbt.so/2013.1/901 2013/11/27
 36 40  0  0  0  0  0  0  0  0999 V2000
    7.8099  -33.1092   -4.4864 C   0  0  0  0  0  0
    7.0045  -32.8630   -3.2044 C   0  0  0  0  0  0
    8.5402  -31.8338   -4.9435 C   0  0  0  0  0  0
    9.6503  -31.5068   -4.0235 N   0  0  0  0  0  0
   10.2768  -30.2292   -4.4211 C   0  0  0  0  0  0
   10.5445  -29.3600   -3.2067 C   0  0  0  0  0  0
   11.8550  -29.0527   -2.7317 C   0  0  0  0  0  0
   13.0713  -29.6295   -3.4194 C   0  0  0  0  0  0
   12.0147  -28.1700   -1.6233 C   0  0  0  0  0  0
   13.3318  -27.8432   -1.1460 N   0  0  0  0  0  0
   13.6754  -26.7643   -0.5035 C   0  0  0  0  0  0
   12.7401  -25.7487   -0.2866 O   0  0  0  0  0  0
   15.0815  -26.6058   -0.0572 C   0  0  0  0  0  0
   15.4048  -25.9306    1.1297 C   0  0  0  0  0  0
   16.7028  -25.7919    1.5043 N   0  0  0  0  0  0
   17.7105  -26.3086    0.7529 C   0  0  0  0  0  0
   19.1304  -26.1007    1.1620 C   0  0  0  0  0  0
   17.4247  -26.9682   -0.3991 N   0  0  0  0  0  0
   16.1422  -27.1303   -0.8142 C   0  0  0  0  0  0
   10.8703  -27.6855   -0.9605 C   0  0  0  0  0  0
    9.6523  -28.0302   -1.4361 N   0  0  0  0  0  0
    8.4347  -27.6950   -0.9892 C   0  0  0  0  0  0
    7.5141  -28.2996   -1.8251 C   0  0  0  0  0  0
    8.1546  -29.0079   -2.7855 N   0  0  0  0  0  0
    9.4618  -28.8139   -2.5054 C   0  0  0  0  0  0
   10.6428  -32.6025   -4.0211 C   0  0  0  0  0  0
    9.9991  -33.8867   -3.4985 C   0  0  0  0  0  0
    8.7899  -34.1884   -4.2771 N   0  0  0  0  0  0
    8.6429  -35.4750   -4.9128 C   0  0  0  0  0  0
    9.6687  -36.0834   -5.3270 O   0  0  0  0  0  0
    7.2884  -36.1465   -5.0363 C   0  0  0  0  0  0
    6.3585  -35.3723   -5.9748 C   0  0  0  0  0  0
    6.3946  -36.0871   -7.3264 C   0  0  0  0  0  0
    7.2343  -37.3486   -7.1497 C   0  0  0  0  0  0
    7.4187  -37.5361   -5.6527 C   0  0  0  0  0  0
   12.9830  -24.8671    0.1456 H   0  0  0  0  0  0
  1  2  1  0  0  0
  1  3  1  0  0  0
  3  4  1  0  0  0
  4  5  1  0  0  0
  5  6  1  0  0  0
  6  7  2  0  0  0
  7  8  1  0  0  0
  7  9  1  0  0  0
  9 10  1  0  0  0
 10 11  2  0  0  0
 11 12  1  0  0  0
 11 13  1  0  0  0
 13 14  2  0  0  0
 14 15  1  0  0  0
 15 16  2  0  0  0
 16 17  1  0  0  0
 16 18  1  0  0  0
 18 19  2  0  0  0
  9 20  2  0  0  0
 20 21  1  0  0  0
 21 22  1  0  0  0
 22 23  2  0  0  0
 23 24  1  0  0  0
 24 25  2  0  0  0
  4 26  1  0  0  0
 26 27  1  0  0  0
 27 28  1  0  0  0
 28 29  1  0  0  0
 29 30  2  0  0  0
 29 31  1  0  0  0
 31 32  1  0  0  0
 32 33  1  0  0  0
 33 34  1  0  0  0
 34 35  1  0  0  0
 28  1  1  0  0  0
 35 31  1  0  0  0
 25  6  1  0  0  0
 19 13  1  0  0  0
 25 21  1  0  0  0
 12 36  1  0  0  0
M  END
>  <CHROM.0>
-1.17748403,-177.75744759,12.54840092,61.04392929,-64.14559634,-7.79518510

>  <CHROM.1>
136.37349363,111.84355694,154.52970726,-175.28311767,-146.69971028,66.89890244
10.96899657,-30.49101337,-2.72787370,2.22688154,0.15029646,-2.69087686

>  <RI>
2.95534e+07

>  <Rbt.Current_Directory>
/extra/banzai2/j5wagner/CELPP/2016_10_17_rdock_implementation/normal_run/tutorialVideo/tutorial_rdock_implementation/full_week_run/4-docking/5m96/hiResHolo_5aph_docking

>  <Rbt.Executable>
rbdock ($Id: //depot/dev/client3/rdock/2013.1/src/exe/rbdock.cxx#4 $)

>  <Rbt.Library>
libRbt.so (2013.1, Build901 2013/11/27)

>  <Rbt.Parameter_File>
/home/j5wagner/env_00/source/rDock/rDock_2013.1_src//data/scripts/dock.prm

>  <Rbt.Receptor>
/extra/banzai2/j5wagner/CELPP/2016_10_17_rdock_implementation/normal_run/tutorialVideo/tutorial_rdock_implementation/full_week_run/4-docking/5m96/hiResHolo_5aph_tech_prep/rDockGridGenInput.prm

>  <SCORE>
-25.6437

>  <SCORE.INTER>
-17.8464

>  <SCORE.INTER.CONST>
1

>  <SCORE.INTER.POLAR>
-0.81408

>  <SCORE.INTER.REPUL>
0

>  <SCORE.INTER.ROT>
5

>  <SCORE.INTER.VDW>
-25.4785

>  <SCORE.INTER.norm>
-0.509896

>  <SCORE.INTRA>
-0.00605218

>  <SCORE.INTRA.DIHEDRAL>
-0.932487

>  <SCORE.INTRA.DIHEDRAL.0>
9.74364

>  <SCORE.INTRA.POLAR>
0

>  <SCORE.INTRA.POLAR.0>
0

>  <SCORE.INTRA.REPUL>
-0.0923014

>  <SCORE.INTRA.REPUL.0>
0.108387

>  <SCORE.INTRA.VDW>
0.921698

>  <SCORE.INTRA.VDW.0>
-2.87247

>  <SCORE.INTRA.norm>
-0.000172919

>  <SCORE.RESTR>
0

>  <SCORE.RESTR.CAVITY>
0

>  <SCORE.RESTR.norm>
0

>  <SCORE.SYSTEM>
-7.79132

>  <SCORE.SYSTEM.CONST>
0

>  <SCORE.SYSTEM.DIHEDRAL>
0.353621

>  <SCORE.SYSTEM.POLAR>
-2.25841

>  <SCORE.SYSTEM.VDW>
-0.289529

>  <SCORE.SYSTEM.norm>
-0.222609

>  <SCORE.heavy>
35

>  <SCORE.norm>
-0.732678

$$$$

  rDOCK(R)          3D
libRbt.so/2013.1/901 2013/11/27
 36 40  0  0  0  0  0  0  0  0999 V2000
    9.0976  -32.4447   -2.2019 C   0  0  0  0  0  0
   10.6156  -32.6486   -2.2827 C   0  0  0  0  0  0
    8.7464  -31.1120   -1.5167 C   0  0  0  0  0  0
    9.0948  -29.9678   -2.3858 N   0  0  0  0  0  0
    8.8423  -28.6976   -1.6747 C   0  0  0  0  0  0
    9.9197  -27.6782   -1.9945 C   0  0  0  0  0  0
   11.1951  -27.6530   -1.3539 C   0  0  0  0  0  0
   11.5238  -28.6513   -0.2675 C   0  0  0  0  0  0
   12.1732  -26.7013   -1.7669 C   0  0  0  0  0  0
   13.4663  -26.6770   -1.1369 N   0  0  0  0  0  0
   14.4599  -25.8931   -1.4419 C   0  0  0  0  0  0
   14.3550  -25.0157   -2.5247 O   0  0  0  0  0  0
   15.7187  -25.9851   -0.6619 C   0  0  0  0  0  0
   15.7155  -25.9956    0.7413 C   0  0  0  0  0  0
   16.8860  -26.0684    1.4262 N   0  0  0  0  0  0
   18.0773  -26.1442    0.7764 C   0  0  0  0  0  0
   19.3515  -26.1748    1.5523 C   0  0  0  0  0  0
   18.1081  -26.1378   -0.5811 N   0  0  0  0  0  0
   16.9636  -26.0652   -1.3079 C   0  0  0  0  0  0
   11.8315  -25.7437   -2.7416 C   0  0  0  0  0  0
   10.5995  -25.7962   -3.2966 N   0  0  0  0  0  0
   10.0511  -25.0123   -4.2342 C   0  0  0  0  0  0
    8.7715  -25.4844   -4.4613 C   0  0  0  0  0  0
    8.5245  -26.5546   -3.6691 N   0  0  0  0  0  0
    9.6722  -26.7068   -2.9730 C   0  0  0  0  0  0
    8.3170  -30.0328   -3.6414 C   0  0  0  0  0  0
    8.6801  -31.3011   -4.4135 C   0  0  0  0  0  0
    8.5034  -32.4762   -3.5491 N   0  0  0  0  0  0
    7.6662  -33.5695   -3.9793 C   0  0  0  0  0  0
    6.6662  -33.3339   -4.7129 O   0  0  0  0  0  0
    7.9974  -35.0067   -3.6250 C   0  0  0  0  0  0
    7.0266  -35.9889   -4.2866 C   0  0  0  0  0  0
    7.7324  -36.5473   -5.5232 C   0  0  0  0  0  0
    9.1566  -36.0005   -5.5179 C   0  0  0  0  0  0
    9.3795  -35.3950   -4.1417 C   0  0  0  0  0  0
   15.0888  -24.3652   -2.7723 H   0  0  0  0  0  0
  1  2  1  0  0  0
  1  3  1  0  0  0
  3  4  1  0  0  0
  4  5  1  0  0  0
  5  6  1  0  0  0
  6  7  2  0  0  0
  7  8  1  0  0  0
  7  9  1  0  0  0
  9 10  1  0  0  0
 10 11  2  0  0  0
 11 12  1  0  0  0
 11 13  1  0  0  0
 13 14  2  0  0  0
 14 15  1  0  0  0
 15 16  2  0  0  0
 16 17  1  0  0  0
 16 18  1  0  0  0
 18 19  2  0  0  0
  9 20  2  0  0  0
 20 21  1  0  0  0
 21 22  1  0  0  0
 22 23  2  0  0  0
 23 24  1  0  0  0
 24 25  2  0  0  0
  4 26  1  0  0  0
 26 27  1  0  0  0
 27 28  1  0  0  0
 28 29  1  0  0  0
 29 30  2  0  0  0
 29 31  1  0  0  0
 31 32  1  0  0  0
 32 33  1  0  0  0
 33 34  1  0  0  0
 34 35  1  0  0  0
 28  1  1  0  0  0
 35 31  1  0  0  0
 25  6  1  0  0  0
 19 13  1  0  0  0
 25 21  1  0  0  0
 12 36  1  0  0  0
M  END
>  <CHROM.0>
-148.22764496,173.80345295,14.27833777,59.92112933,65.37394190,-3.81694551

>  <CHROM.1>
141.73644351,-81.35174501,177.77689976,177.51953187,-48.18812598,-175.45156243
11.26043226,-29.22482186,-2.40172509,-2.38715738,-0.43493184,0.00707080

>  <RI>
2.95534e+07

>  <Rbt.Current_Directory>
/extra/banzai2/j5wagner/CELPP/2016_10_17_rdock_implementation/normal_run/tutorialVideo/tutorial_rdock_implementation/full_week_run/4-docking/5m96/hiResHolo_5aph_docking

>  <Rbt.Executable>
rbdock ($Id: //depot/dev/client3/rdock/2013.1/src/exe/rbdock.cxx#4 $)

>  <Rbt.Library>
libRbt.so (2013.1, Build901 2013/11/27)

>  <Rbt.Parameter_File>
/home/j5wagner/env_00/source/rDock/rDock_2013.1_src//data/scripts/dock.prm

>  <Rbt.Receptor>
/extra/banzai2/j5wagner/CELPP/2016_10_17_rdock_implementation/normal_run/tutorialVideo/tutorial_rdock_implementation/full_week_run/4-docking/5m96/hiResHolo_5aph_tech_prep/rDockGridGenInput.prm

>  <SCORE>
-25.5807

>  <SCORE.INTER>
-17.0661

>  <SCORE.INTER.CONST>
1

>  <SCORE.INTER.POLAR>
-0.835712

>  <SCORE.INTER.REPUL>
0.0134331

>  <SCORE.INTER.ROT>
5

>  <SCORE.INTER.VDW>
-24.6919

>  <SCORE.INTER.norm>
-0.487604

>  <SCORE.INTRA>
0.675279

>  <SCORE.INTRA.DIHEDRAL>
0.178541

>  <SCORE.INTRA.DIHEDRAL.0>
9.74364

>  <SCORE.INTRA.POLAR>
0

>  <SCORE.INTRA.POLAR.0>
0

>  <SCORE.INTRA.REPUL>
-0.108387

>  <SCORE.INTRA.REPUL.0>
0.108387

>  <SCORE.INTRA.VDW>
1.12795

>  <SCORE.INTRA.VDW.0>
-2.87247

>  <SCORE.INTRA.norm>
0.0192937

>  <SCORE.RESTR>
0

>  <SCORE.RESTR.CAVITY>
0

>  <SCORE.RESTR.norm>
0

>  <SCORE.SYSTEM>
-9.18981

>  <SCORE.SYSTEM.CONST>
0

>  <SCORE.SYSTEM.DIHEDRAL>
1.76936

>  <SCORE.SYSTEM.POLAR>
-2.79159

>  <SCORE.SYSTEM.VDW>
-0.583096

>  <SCORE.SYSTEM.norm>
-0.262566

>  <SCORE.heavy>
35

>  <SCORE.norm>
-0.730876

$$$$

  rDOCK(R)          3D
libRbt.so/2013.1/901 2013/11/27
 36 40  0  0  0  0  0  0  0  0999 V2000
   12.3130  -27.2487   -2.4625 C   0  0  0  0  0  0
   12.4700  -27.5897   -3.9497 C   0  0  0  0  0  0
   10.8410  -27.3323   -2.0204 C   0  0  0  0  0  0
   10.3807  -28.7370   -1.9929 N   0  0  0  0  0  0
    8.9419  -28.7911   -1.6620 C   0  0  0  0  0  0
    8.3938  -30.1906   -1.8702 C   0  0  0  0  0  0
    8.4413  -30.8769   -3.1209 C   0  0  0  0  0  0
    9.0260  -30.2020   -4.3406 C   0  0  0  0  0  0
    7.9645  -32.2178   -3.2082 C   0  0  0  0  0  0
    8.0209  -32.9228   -4.4609 N   0  0  0  0  0  0
    7.4327  -34.0500   -4.7406 C   0  0  0  0  0  0
    6.7209  -34.7346   -3.7516 O   0  0  0  0  0  0
    7.5759  -34.6216   -6.1023 C   0  0  0  0  0  0
    8.6600  -34.2896   -6.9290 C   0  0  0  0  0  0
    8.7559  -34.8207   -8.1753 N   0  0  0  0  0  0
    7.8199  -35.6874   -8.6441 C   0  0  0  0  0  0
    7.9231  -36.2191  -10.0345 C   0  0  0  0  0  0
    6.7619  -36.0267   -7.8635 N   0  0  0  0  0  0
    6.6237  -35.5200   -6.6115 C   0  0  0  0  0  0
    7.3731  -32.8118   -2.0763 C   0  0  0  0  0  0
    7.3294  -32.1063   -0.9235 N   0  0  0  0  0  0
    6.8321  -32.4524    0.2713 C   0  0  0  0  0  0
    7.0368  -31.3821    1.1223 C   0  0  0  0  0  0
    7.6565  -30.3756    0.4612 N   0  0  0  0  0  0
    7.8136  -30.8649   -0.7881 C   0  0  0  0  0  0
   11.1761  -29.5094   -1.0150 C   0  0  0  0  0  0
   12.6440  -29.5334   -1.4410 C   0  0  0  0  0  0
   13.1260  -28.1594   -1.6388 N   0  0  0  0  0  0
   14.3004  -27.6986   -0.9391 C   0  0  0  0  0  0
   14.5604  -28.1592    0.2072 O   0  0  0  0  0  0
   15.2687  -26.7206   -1.5770 C   0  0  0  0  0  0
   14.9599  -25.2763   -1.1728 C   0  0  0  0  0  0
   15.9394  -24.9071   -0.0576 C   0  0  0  0  0  0
   16.9049  -26.0774    0.1034 C   0  0  0  0  0  0
   16.6970  -26.9756   -1.1050 C   0  0  0  0  0  0
    6.2841  -35.6318   -3.9166 H   0  0  0  0  0  0
  1  2  1  0  0  0
  1  3  1  0  0  0
  3  4  1  0  0  0
  4  5  1  0  0  0
  5  6  1  0  0  0
  6  7  2  0  0  0
  7  8  1  0  0  0
  7  9  1  0  0  0
  9 10  1  0  0  0
 10 11  2  0  0  0
 11 12  1  0  0  0
 11 13  1  0  0  0
 13 14  2  0  0  0
 14 15  1  0  0  0
 15 16  2  0  0  0
 16 17  1  0  0  0
 16 18  1  0  0  0
 18 19  2  0  0  0
  9 20  2  0  0  0
 20 21  1  0  0  0
 21 22  1  0  0  0
 22 23  2  0  0  0
 23 24  1  0  0  0
 24 25  2  0  0  0
  4 26  1  0  0  0
 26 27  1  0  0  0
 27 28  1  0  0  0
 28 29  1  0  0  0
 29 30  2  0  0  0
 29 31  1  0  0  0
 31 32  1  0  0  0
 32 33  1  0  0  0
 33 34  1  0  0  0
 34 35  1  0  0  0
 28  1  1  0  0  0
 35 31  1  0  0  0
 25  6  1  0  0  0
 19 13  1  0  0  0
 25 21  1  0  0  0
 12 36  1  0  0  0
M  END
>  <CHROM.0>
-148.59816237,4.94725298,14.72452369,-176.82429060,64.41132353,0.86402701

>  <CHROM.1>
169.87820112,-58.55170891,-167.94890844,-177.25993999,23.38478303,95.28119434
10.19070588,-30.68104118,-2.92076196,-0.79630122,-0.54853056,-2.07232366

>  <RI>
2.95534e+07

>  <Rbt.Current_Directory>
/extra/banzai2/j5wagner/CELPP/2016_10_17_rdock_implementation/normal_run/tutorialVideo/tutorial_rdock_implementation/full_week_run/4-docking/5m96/hiResHolo_5aph_docking

>  <Rbt.Executable>
rbdock ($Id: //depot/dev/client3/rdock/2013.1/src/exe/rbdock.cxx#4 $)

>  <Rbt.Library>
libRbt.so (2013.1, Build901 2013/11/27)

>  <Rbt.Parameter_File>
/home/j5wagner/env_00/source/rDock/rDock_2013.1_src//data/scripts/dock.prm

>  <Rbt.Receptor>
/extra/banzai2/j5wagner/CELPP/2016_10_17_rdock_implementation/normal_run/tutorialVideo/tutorial_rdock_implementation/full_week_run/4-docking/5m96/hiResHolo_5aph_tech_prep/rDockGridGenInput.prm

>  <SCORE>
-25.203

>  <SCORE.INTER>
-17.0797

>  <SCORE.INTER.CONST>
1

>  <SCORE.INTER.POLAR>
0

>  <SCORE.INTER.REPUL>
0.00489758

>  <SCORE.INTER.ROT>
5

>  <SCORE.INTER.VDW>
-27.5042

>  <SCORE.INTER.norm>
-0.487993

>  <SCORE.INTRA>
-0.953965

>  <SCORE.INTRA.DIHEDRAL>
-4.05963

>  <SCORE.INTRA.DIHEDRAL.0>
9.74364

>  <SCORE.INTRA.POLAR>
0

>  <SCORE.INTRA.POLAR.0>
0

>  <SCORE.INTRA.REPUL>
-0.108387

>  <SCORE.INTRA.REPUL.0>
0.108387

>  <SCORE.INTRA.VDW>
1.61778

>  <SCORE.INTRA.VDW.0>
-2.87247

>  <SCORE.INTRA.norm>
-0.0272562

>  <SCORE.RESTR>
0

>  <SCORE.RESTR.CAVITY>
0

>  <SCORE.RESTR.norm>
0

>  <SCORE.SYSTEM>
-7.1693

>  <SCORE.SYSTEM.CONST>
0

>  <SCORE.SYSTEM.DIHEDRAL>
1.73951

>  <SCORE.SYSTEM.POLAR>
-2.24257

>  <SCORE.SYSTEM.VDW>
-0.414321

>  <SCORE.SYSTEM.norm>
-0.204837

>  <SCORE.heavy>
35

>  <SCORE.norm>
-0.720086

$$$$

  rDOCK(R)          3D
libRbt.so/2013.1/901 2013/11/27
 36 40  0  0  0  0  0  0  0  0999 V2000
    8.3251  -33.0912   -4.6528 C   0  0  0  0  0  0
    6.9737  -32.7716   -4.0015 C   0  0  0  0  0  0
    9.4146  -32.1040   -4.1973 C   0  0  0  0  0  0
    9.7719  -32.3342   -2.7812 N   0  0  0  0  0  0
   10.7457  -31.3172   -2.3338 C   0  0  0  0  0  0
   10.2650  -29.9211   -2.6830 C   0  0  0  0  0  0
   10.9327  -29.0677   -3.6123 C   0  0  0  0  0  0
   12.2099  -29.5197   -4.2826 C   0  0  0  0  0  0
   10.3709  -27.7970   -3.9325 C   0  0  0  0  0  0
   11.0289  -26.9357   -4.8783 N   0  0  0  0  0  0
   10.5522  -25.8340   -5.3822 C   0  0  0  0  0  0
    9.2510  -25.4270   -5.0748 O   0  0  0  0  0  0
   11.3864  -25.0510   -6.3269 C   0  0  0  0  0  0
   12.5724  -25.5719   -6.8665 C   0  0  0  0  0  0
   13.3202  -24.8250   -7.7194 N   0  0  0  0  0  0
   12.9364  -23.5714   -8.0775 C   0  0  0  0  0  0
   13.8005  -22.7537   -8.9783 C   0  0  0  0  0  0
   11.7919  -23.0445   -7.5712 N   0  0  0  0  0  0
   11.0130  -23.7535   -6.7144 C   0  0  0  0  0  0
    9.2107  -27.3691   -3.2582 C   0  0  0  0  0  0
    8.6339  -28.2067   -2.3670 N   0  0  0  0  0  0
    7.5377  -28.0327   -1.6169 C   0  0  0  0  0  0
    7.3652  -29.1867   -0.8752 C   0  0  0  0  0  0
    8.3484  -30.0731   -1.1608 N   0  0  0  0  0  0
    9.1017  -29.4280   -2.0780 C   0  0  0  0  0  0
   10.3189  -33.6975   -2.6142 C   0  0  0  0  0  0
    9.2544  -34.7333   -2.9756 C   0  0  0  0  0  0
    8.7398  -34.4659   -4.3258 N   0  0  0  0  0  0
    8.7619  -35.5056   -5.3258 C   0  0  0  0  0  0
    9.6835  -36.3681   -5.3040 O   0  0  0  0  0  0
    7.6644  -35.6266   -6.3658 C   0  0  0  0  0  0
    7.6617  -37.0088   -7.0249 C   0  0  0  0  0  0
    6.5616  -37.8245   -6.3441 C   0  0  0  0  0  0
    5.8328  -36.8896   -5.3835 C   0  0  0  0  0  0
    6.2858  -35.4804   -5.7286 C   0  0  0  0  0  0
    8.8119  -24.6279   -5.5125 H   0  0  0  0  0  0
  1  2  1  0  0  0
  1  3  1  0  0  0
  3  4  1  0  0  0
  4  5  1  0  0  0
  5  6  1  0  0  0
  6  7  2  0  0  0
  7  8  1  0  0  0
  7  9  1  0  0  0
  9 10  1  0  0  0
 10 11  2  0  0  0
 11 12  1  0  0  0
 11 13  1  0  0  0
 13 14  2  0  0  0
 14 15  1  0  0  0
 15 16  2  0  0  0
 16 17  1  0  0  0
 16 18  1  0  0  0
 18 19  2  0  0  0
  9 20  2  0  0  0
 20 21  1  0  0  0
 21 22  1  0  0  0
 22 23  2  0  0  0
 23 24  1  0  0  0
 24 25  2  0  0  0
  4 26  1  0  0  0
 26 27  1  0  0  0
 27 28  1  0  0  0
 28 29  1  0  0  0
 29 30  2  0  0  0
 29 31  1  0  0  0
 31 32  1  0  0  0
 32 33  1  0  0  0
 33 34  1  0  0  0
 34 35  1  0  0  0
 28  1  1  0  0  0
 35 31  1  0  0  0
 25  6  1  0  0  0
 19 13  1  0  0  0
 25 21  1  0  0  0
 12 36  1  0  0  0
M  END
>  <CHROM.0>
-149.12735371,2.44938917,13.33849240,-178.12367012,-179.45578893,20.61076873

>  <CHROM.1>
50.25749307,-114.78698837,171.05557320,-173.99990391,10.99315517,-162.54448029
9.62944998,-30.19551194,-4.66905070,-2.47496960,1.12755636,0.70855841

>  <RI>
2.95534e+07

>  <Rbt.Current_Directory>
/extra/banzai2/j5wagner/CELPP/2016_10_17_rdock_implementation/normal_run/tutorialVideo/tutorial_rdock_implementation/full_week_run/4-docking/5m96/hiResHolo_5aph_docking

>  <Rbt.Executable>
rbdock ($Id: //depot/dev/client3/rdock/2013.1/src/exe/rbdock.cxx#4 $)

>  <Rbt.Library>
libRbt.so (2013.1, Build901 2013/11/27)

>  <Rbt.Parameter_File>
/home/j5wagner/env_00/source/rDock/rDock_2013.1_src//data/scripts/dock.prm

>  <Rbt.Receptor>
/extra/banzai2/j5wagner/CELPP/2016_10_17_rdock_implementation/normal_run/tutorialVideo/tutorial_rdock_implementation/full_week_run/4-docking/5m96/hiResHolo_5aph_tech_prep/rDockGridGenInput.prm

>  <SCORE>
-25.1399

>  <SCORE.INTER>
-16.6175

>  <SCORE.INTER.CONST>
1

>  <SCORE.INTER.POLAR>
-0.0172315

>  <SCORE.INTER.REPUL>
0

>  <SCORE.INTER.ROT>
5

>  <SCORE.INTER.VDW>
-26.9589

>  <SCORE.INTER.norm>
-0.474785

>  <SCORE.INTRA>
-1.24796

>  <SCORE.INTRA.DIHEDRAL>
-6.92799

>  <SCORE.INTRA.DIHEDRAL.0>
9.74364

>  <SCORE.INTRA.POLAR>
0

>  <SCORE.INTRA.POLAR.0>
0

>  <SCORE.INTRA.REPUL>
-0.0721827

>  <SCORE.INTRA.REPUL.0>
0.108387

>  <SCORE.INTRA.VDW>
2.57695

>  <SCORE.INTRA.VDW.0>
-2.87247

>  <SCORE.INTRA.norm>
-0.0356559

>  <SCORE.RESTR>
0.146261

>  <SCORE.RESTR.CAVITY>
0.146261

>  <SCORE.RESTR.norm>
0.00417887

>  <SCORE.SYSTEM>
-7.42073

>  <SCORE.SYSTEM.CONST>
0

>  <SCORE.SYSTEM.DIHEDRAL>
2.19786

>  <SCORE.SYSTEM.POLAR>
-2.24518

>  <SCORE.SYSTEM.VDW>
-0.886043

>  <SCORE.SYSTEM.norm>
-0.212021

>  <SCORE.heavy>
35

>  <SCORE.norm>
-0.718283

$$$$

  rDOCK(R)          3D
libRbt.so/2013.1/901 2013/11/27
 36 40  0  0  0  0  0  0  0  0999 V2000
    8.1643  -31.0954   -3.5599 C   0  0  0  0  0  0
    7.0124  -30.0833   -3.5966 C   0  0  0  0  0  0
    9.3674  -30.6060   -4.3858 C   0  0  0  0  0  0
   10.0311  -29.4649   -3.7201 N   0  0  0  0  0  0
   11.1211  -28.9468   -4.5723 C   0  0  0  0  0  0
   11.6706  -27.6478   -4.0130 C   0  0  0  0  0  0
   12.8697  -27.5669   -3.2428 C   0  0  0  0  0  0
   13.6492  -28.8184   -2.9095 C   0  0  0  0  0  0
   13.3494  -26.2938   -2.8160 C   0  0  0  0  0  0
   14.5643  -26.2006   -2.0513 N   0  0  0  0  0  0
   14.6939  -26.4269   -0.7758 C   0  0  0  0  0  0
   13.5711  -26.7215    0.0024 O   0  0  0  0  0  0
   16.0363  -26.3122   -0.1542 C   0  0  0  0  0  0
   17.2081  -26.3297   -0.9259 C   0  0  0  0  0  0
   18.4225  -26.2350   -0.3254 N   0  0  0  0  0  0
   18.5320  -26.1102    1.0235 C   0  0  0  0  0  0
   19.8794  -26.0563    1.6624 C   0  0  0  0  0  0
   17.4135  -26.0886    1.7931 N   0  0  0  0  0  0
   16.1783  -26.1816    1.2372 C   0  0  0  0  0  0
   12.5825  -25.1442   -3.0880 C   0  0  0  0  0  0
   11.4400  -25.2814   -3.7983 N   0  0  0  0  0  0
   10.5571  -24.3506   -4.1839 C   0  0  0  0  0  0
    9.5636  -25.0013   -4.8919 C   0  0  0  0  0  0
    9.8257  -26.3289   -4.9458 N   0  0  0  0  0  0
   10.9838  -26.4524   -4.2613 C   0  0  0  0  0  0
   10.5477  -29.8825   -2.3993 C   0  0  0  0  0  0
    9.3886  -30.3071   -1.4977 C   0  0  0  0  0  0
    8.5884  -31.3395   -2.1709 N   0  0  0  0  0  0
    8.3391  -32.6007   -1.5163 C   0  0  0  0  0  0
    9.2063  -33.0740   -0.7303 O   0  0  0  0  0  0
    7.0281  -33.3414   -1.6988 C   0  0  0  0  0  0
    6.7791  -34.3363   -0.5617 C   0  0  0  0  0  0
    5.8086  -33.6659    0.4119 C   0  0  0  0  0  0
    5.3845  -32.3398   -0.2121 C   0  0  0  0  0  0
    5.8442  -32.3796   -1.6603 C   0  0  0  0  0  0
   12.6362  -26.7590   -0.3816 H   0  0  0  0  0  0
  1  2  1  0  0  0
  1  3  1  0  0  0
  3  4  1  0  0  0
  4  5  1  0  0  0
  5  6  1  0  0  0
  6  7  2  0  0  0
  7  8  1  0  0  0
  7  9  1  0  0  0
  9 10  1  0  0  0
 10 11  2  0  0  0
 11 12  1  0  0  0
 11 13  1  0  0  0
 13 14  2  0  0  0
 14 15  1  0  0  0
 15 16  2  0  0  0
 16 17  1  0  0  0
 16 18  1  0  0  0
 18 19  2  0  0  0
  9 20  2  0  0  0
 20 21  1  0  0  0
 21 22  1  0  0  0
 22 23  2  0  0  0
 23 24  1  0  0  0
 24 25  2  0  0  0
  4 26  1  0  0  0
 26 27  1  0  0  0
 27 28  1  0  0  0
 28 29  1  0  0  0
 29 30  2  0  0  0
 29 31  1  0  0  0
 31 32  1  0  0  0
 32 33  1  0  0  0
 33 34  1  0  0  0
 34 35  1  0  0  0
 28  1  1  0  0  0
 35 31  1  0  0  0
 25  6  1  0  0  0
 19 13  1  0  0  0
 25 21  1  0  0  0
 12 36  1  0  0  0
M  END
>  <CHROM.0>
-148.31628327,-177.04975232,13.26685511,59.67517348,-176.35616536,22.40994006

>  <CHROM.1>
171.10800974,99.79089790,-79.58707642,-0.72824873,-17.62821826,-159.08280908
11.54235107,-28.60518042,-1.93171816,2.82739791,0.51015173,2.40321583

>  <RI>
2.95534e+07

>  <Rbt.Current_Directory>
/extra/banzai2/j5wagner/CELPP/2016_10_17_rdock_implementation/normal_run/tutorialVideo/tutorial_rdock_implementation/full_week_run/4-docking/5m96/hiResHolo_5aph_docking

>  <Rbt.Executable>
rbdock ($Id: //depot/dev/client3/rdock/2013.1/src/exe/rbdock.cxx#4 $)

>  <Rbt.Library>
libRbt.so (2013.1, Build901 2013/11/27)

>  <Rbt.Parameter_File>
/home/j5wagner/env_00/source/rDock/rDock_2013.1_src//data/scripts/dock.prm

>  <Rbt.Receptor>
/extra/banzai2/j5wagner/CELPP/2016_10_17_rdock_implementation/normal_run/tutorialVideo/tutorial_rdock_implementation/full_week_run/4-docking/5m96/hiResHolo_5aph_tech_prep/rDockGridGenInput.prm

>  <SCORE>
-25.0962

>  <SCORE.INTER>
-15.9307

>  <SCORE.INTER.CONST>
1

>  <SCORE.INTER.POLAR>
-0.84304

>  <SCORE.INTER.REPUL>
0

>  <SCORE.INTER.ROT>
5

>  <SCORE.INTER.VDW>
-23.4643

>  <SCORE.INTER.norm>
-0.455162

>  <SCORE.INTRA>
0.216529

>  <SCORE.INTRA.DIHEDRAL>
-0.408994

>  <SCORE.INTRA.DIHEDRAL.0>
9.74364

>  <SCORE.INTRA.POLAR>
0

>  <SCORE.INTRA.POLAR.0>
0

>  <SCORE.INTRA.REPUL>
-0.108387

>  <SCORE.INTRA.REPUL.0>
0.108387

>  <SCORE.INTRA.VDW>
0.962962

>  <SCORE.INTRA.VDW.0>
-2.87247

>  <SCORE.INTRA.norm>
0.00618653

>  <SCORE.RESTR>
0

>  <SCORE.RESTR.CAVITY>
0

>  <SCORE.RESTR.norm>
0

>  <SCORE.SYSTEM>
-9.38202

>  <SCORE.SYSTEM.CONST>
0

>  <SCORE.SYSTEM.DIHEDRAL>
2.41576

>  <SCORE.SYSTEM.POLAR>
-2.8017

>  <SCORE.SYSTEM.VDW>
-1.06412

>  <SCORE.SYSTEM.norm>
-0.268058

>  <SCORE.heavy>
35

>  <SCORE.norm>
-0.717034

$$$$

  rDOCK(R)          3D
libRbt.so/2013.1/901 2013/11/27
 36 40  0  0  0  0  0  0  0  0999 V2000
    9.2162  -31.5088   -3.9916 C   0  0  0  0  0  0
    9.8140  -30.8504   -5.2413 C   0  0  0  0  0  0
    9.4679  -30.6573   -2.7344 C   0  0  0  0  0  0
    8.6549  -29.4228   -2.7657 N   0  0  0  0  0  0
    8.9812  -28.5730   -1.6021 C   0  0  0  0  0  0
   10.0268  -27.5364   -1.9687 C   0  0  0  0  0  0
   11.2940  -27.4323   -1.3199 C   0  0  0  0  0  0
   11.6451  -28.3576   -0.1773 C   0  0  0  0  0  0
   12.2436  -26.4719   -1.7767 C   0  0  0  0  0  0
   13.5287  -26.3688   -1.1383 N   0  0  0  0  0  0
   14.6562  -26.8365   -1.5910 C   0  0  0  0  0  0
   14.6823  -27.5863   -2.7701 O   0  0  0  0  0  0
   15.8977  -26.6105   -0.8105 C   0  0  0  0  0  0
   17.1663  -26.8469   -1.3617 C   0  0  0  0  0  0
   18.2832  -26.6419   -0.6170 N   0  0  0  0  0  0
   18.2019  -26.1957    0.6642 C   0  0  0  0  0  0
   19.4419  -26.0245    1.4764 C   0  0  0  0  0  0
   16.9865  -25.9573    1.2209 N   0  0  0  0  0  0
   15.8426  -26.1492    0.5151 C   0  0  0  0  0  0
   11.8798  -25.5816   -2.8057 C   0  0  0  0  0  0
   10.6559  -25.7066   -3.3671 N   0  0  0  0  0  0
   10.0910  -24.9947   -4.3512 C   0  0  0  0  0  0
    8.8304  -25.5220   -4.5624 C   0  0  0  0  0  0
    8.6116  -26.5550   -3.7144 N   0  0  0  0  0  0
    9.7566  -26.6293   -3.0015 C   0  0  0  0  0  0
    7.2170  -29.7661   -2.7813 C   0  0  0  0  0  0
    6.8824  -30.5482   -4.0513 C   0  0  0  0  0  0
    7.7682  -31.7152   -4.1635 N   0  0  0  0  0  0
    7.2071  -33.0354   -4.3166 C   0  0  0  0  0  0
    6.0941  -33.3022   -3.7838 O   0  0  0  0  0  0
    7.8923  -34.0936   -5.1601 C   0  0  0  0  0  0
    9.0674  -34.7343   -4.4161 C   0  0  0  0  0  0
    8.5673  -36.0679   -3.8587 C   0  0  0  0  0  0
    7.1490  -36.2744   -4.3816 C   0  0  0  0  0  0
    6.9407  -35.2430   -5.4784 C   0  0  0  0  0  0
   13.8537  -27.7620   -3.3229 H   0  0  0  0  0  0
  1  2  1  0  0  0
  1  3  1  0  0  0
  3  4  1  0  0  0
  4  5  1  0  0  0
  5  6  1  0  0  0
  6  7  2  0  0  0
  7  8  1  0  0  0
  7  9  1  0  0  0
  9 10  1  0  0  0
 10 11  2  0  0  0
 11 12  1  0  0  0
 11 13  1  0  0  0
 13 14  2  0  0  0
 14 15  1  0  0  0
 15 16  2  0  0  0
 16 17  1  0  0  0
 16 18  1  0  0  0
 18 19  2  0  0  0
  9 20  2  0  0  0
 20 21  1  0  0  0
 21 22  1  0  0  0
 22 23  2  0  0  0
 23 24  1  0  0  0
 24 25  2  0  0  0
  4 26  1  0  0  0
 26 27  1  0  0  0
 27 28  1  0  0  0
 28 29  1  0  0  0
 29 30  2  0  0  0
 29 31  1  0  0  0
 31 32  1  0  0  0
 32 33  1  0  0  0
 33 34  1  0  0  0
 34 35  1  0  0  0
 28  1  1  0  0  0
 35 31  1  0  0  0
 25  6  1  0  0  0
 19 13  1  0  0  0
 25 21  1  0  0  0
 12 36  1  0  0  0
M  END
>  <CHROM.0>
15.40709371,-179.76558917,-175.36915086,61.89500265,175.74867442,5.18516930

>  <CHROM.1>
94.91215309,-120.88165986,102.33608759,2.28182904,-167.01883614,78.41284014
11.12765630,-29.09487183,-2.59589791,-2.48250468,-0.39031078,0.04945887

>  <RI>
2.95534e+07

>  <Rbt.Current_Directory>
/extra/banzai2/j5wagner/CELPP/2016_10_17_rdock_implementation/normal_run/tutorialVideo/tutorial_rdock_implementation/full_week_run/4-docking/5m96/hiResHolo_5aph_docking

>  <Rbt.Executable>
rbdock ($Id: //depot/dev/client3/rdock/2013.1/src/exe/rbdock.cxx#4 $)

>  <Rbt.Library>
libRbt.so (2013.1, Build901 2013/11/27)

>  <Rbt.Parameter_File>
/home/j5wagner/env_00/source/rDock/rDock_2013.1_src//data/scripts/dock.prm

>  <Rbt.Receptor>
/extra/banzai2/j5wagner/CELPP/2016_10_17_rdock_implementation/normal_run/tutorialVideo/tutorial_rdock_implementation/full_week_run/4-docking/5m96/hiResHolo_5aph_tech_prep/rDockGridGenInput.prm

>  <SCORE>
-24.7995

>  <SCORE.INTER>
-20.3087

>  <SCORE.INTER.CONST>
1

>  <SCORE.INTER.POLAR>
-0.707293

>  <SCORE.INTER.REPUL>
0

>  <SCORE.INTER.ROT>
5

>  <SCORE.INTER.VDW>
-28.3039

>  <SCORE.INTER.norm>
-0.580247

>  <SCORE.INTRA>
0.0626864

>  <SCORE.INTRA.DIHEDRAL>
0.559672

>  <SCORE.INTRA.DIHEDRAL.0>
9.74364

>  <SCORE.INTRA.POLAR>
0

>  <SCORE.INTRA.POLAR.0>
0

>  <SCORE.INTRA.REPUL>
-0.0294327

>  <SCORE.INTRA.REPUL.0>
0.108387

>  <SCORE.INTRA.VDW>
-0.0699863

>  <SCORE.INTRA.VDW.0>
-2.87247

>  <SCORE.INTRA.norm>
0.00179104

>  <SCORE.RESTR>
0

>  <SCORE.RESTR.CAVITY>
0

>  <SCORE.RESTR.norm>
0

>  <SCORE.SYSTEM>
-4.55355

>  <SCORE.SYSTEM.CONST>
0

>  <SCORE.SYSTEM.DIHEDRAL>
0.529502

>  <SCORE.SYSTEM.POLAR>
-1.32567

>  <SCORE.SYSTEM.VDW>
-0.311027

>  <SCORE.SYSTEM.norm>
-0.130101

>  <SCORE.heavy>
35

>  <SCORE.norm>
-0.708558

$$$$

  rDOCK(R)          3D
libRbt.so/2013.1/901 2013/11/27
 36 40  0  0  0  0  0  0  0  0999 V2000
   12.3297  -28.2960   -2.0479 C   0  0  0  0  0  0
   12.8264  -29.7272   -1.8077 C   0  0  0  0  0  0
   10.8477  -28.2790   -2.4631 C   0  0  0  0  0  0
    9.9796  -28.6446   -1.3234 N   0  0  0  0  0  0
    8.5714  -28.7184   -1.7639 C   0  0  0  0  0  0
    8.1232  -30.1620   -1.8953 C   0  0  0  0  0  0
    8.1095  -30.8728   -3.1331 C   0  0  0  0  0  0
    8.5197  -30.1832   -4.4142 C   0  0  0  0  0  0
    7.7387  -32.2494   -3.1519 C   0  0  0  0  0  0
    7.7352  -32.9781   -4.3923 N   0  0  0  0  0  0
    8.7794  -33.4212   -5.0312 C   0  0  0  0  0  0
   10.0639  -33.1333   -4.5618 O   0  0  0  0  0  0
    8.5870  -34.1842   -6.2891 C   0  0  0  0  0  0
    9.5998  -34.2762   -7.2559 C   0  0  0  0  0  0
    9.3880  -34.9723   -8.4026 N   0  0  0  0  0  0
    8.2057  -35.6010   -8.6352 C   0  0  0  0  0  0
    7.9815  -36.3187   -9.9240 C   0  0  0  0  0  0
    7.2098  -35.5293   -7.7149 N   0  0  0  0  0  0
    7.3756  -34.8439   -6.5547 C   0  0  0  0  0  0
    7.3070  -32.8611   -1.9589 C   0  0  0  0  0  0
    7.3137  -32.1333   -0.8192 N   0  0  0  0  0  0
    6.9609  -32.4888    0.4232 C   0  0  0  0  0  0
    7.1557  -31.3849    1.2327 C   0  0  0  0  0  0
    7.6256  -30.3484    0.4986 N   0  0  0  0  0  0
    7.7046  -30.8540   -0.7516 C   0  0  0  0  0  0
   10.1397  -27.6608   -0.2315 C   0  0  0  0  0  0
   11.5788  -27.6845    0.2834 C   0  0  0  0  0  0
   12.5097  -27.4803   -0.8351 N   0  0  0  0  0  0
   13.4888  -26.4225   -0.7755 C   0  0  0  0  0  0
   13.2166  -25.3594   -0.1515 O   0  0  0  0  0  0
   14.8662  -26.5837   -1.3899 C   0  0  0  0  0  0
   15.6660  -25.2791   -1.3321 C   0  0  0  0  0  0
   16.6183  -25.3933   -0.1408 C   0  0  0  0  0  0
   16.4762  -26.8053    0.4193 C   0  0  0  0  0  0
   15.6974  -27.6017   -0.6148 C   0  0  0  0  0  0
   10.9006  -33.4207   -5.0520 H   0  0  0  0  0  0
  1  2  1  0  0  0
  1  3  1  0  0  0
  3  4  1  0  0  0
  4  5  1  0  0  0
  5  6  1  0  0  0
  6  7  2  0  0  0
  7  8  1  0  0  0
  7  9  1  0  0  0
  9 10  1  0  0  0
 10 11  2  0  0  0
 11 12  1  0  0  0
 11 13  1  0  0  0
 13 14  2  0  0  0
 14 15  1  0  0  0
 15 16  2  0  0  0
 16 17  1  0  0  0
 16 18  1  0  0  0
 18 19  2  0  0  0
  9 20  2  0  0  0
 20 21  1  0  0  0
 21 22  1  0  0  0
 22 23  2  0  0  0
 23 24  1  0  0  0
 24 25  2  0  0  0
  4 26  1  0  0  0
 26 27  1  0  0  0
 27 28  1  0  0  0
 28 29  1  0  0  0
 29 30  2  0  0  0
 29 31  1  0  0  0
 31 32  1  0  0  0
 32 33  1  0  0  0
 33 34  1  0  0  0
 34 35  1  0  0  0
 28  1  1  0  0  0
 35 31  1  0  0  0
 25  6  1  0  0  0
 19 13  1  0  0  0
 25 21  1  0  0  0
 12 36  1  0  0  0
M  END
>  <CHROM.0>
-148.56554305,3.09628761,13.07575522,60.74835540,-59.97213144,-7.19014600

>  <CHROM.1>
104.53913939,-97.12989032,75.78962282,-177.02181639,156.88814553,173.81255093
10.24875334,-30.48504213,-2.75865754,-0.94478813,-0.48810029,-2.15552928

>  <RI>
2.95534e+07

>  <Rbt.Current_Directory>
/extra/banzai2/j5wagner/CELPP/2016_10_17_rdock_implementation/normal_run/tutorialVideo/tutorial_rdock_implementation/full_week_run/4-docking/5m96/hiResHolo_5aph_docking

>  <Rbt.Executable>
rbdock ($Id: //depot/dev/client3/rdock/2013.1/src/exe/rbdock.cxx#4 $)

>  <Rbt.Library>
libRbt.so (2013.1, Build901 2013/11/27)

>  <Rbt.Parameter_File>
/home/j5wagner/env_00/source/rDock/rDock_2013.1_src//data/scripts/dock.prm

>  <Rbt.Receptor>
/extra/banzai2/j5wagner/CELPP/2016_10_17_rdock_implementation/normal_run/tutorialVideo/tutorial_rdock_implementation/full_week_run/4-docking/5m96/hiResHolo_5aph_tech_prep/rDockGridGenInput.prm

>  <SCORE>
-24.7418

>  <SCORE.INTER>
-15.6458

>  <SCORE.INTER.CONST>
1

>  <SCORE.INTER.POLAR>
0

>  <SCORE.INTER.REPUL>
0

>  <SCORE.INTER.ROT>
5

>  <SCORE.INTER.VDW>
-26.0458

>  <SCORE.INTER.norm>
-0.447023

>  <SCORE.INTRA>
0.177924

>  <SCORE.INTRA.DIHEDRAL>
1.53723

>  <SCORE.INTRA.DIHEDRAL.0>
9.74364

>  <SCORE.INTRA.POLAR>
0

>  <SCORE.INTRA.POLAR.0>
0

>  <SCORE.INTRA.REPUL>
-0.108387

>  <SCORE.INTRA.REPUL.0>
0.108387

>  <SCORE.INTRA.VDW>
-0.0487571

>  <SCORE.INTRA.VDW.0>
-2.87247

>  <SCORE.INTRA.norm>
0.00508353

>  <SCORE.RESTR>
0

>  <SCORE.RESTR.CAVITY>
0

>  <SCORE.RESTR.norm>
0

>  <SCORE.SYSTEM>
-9.2739

>  <SCORE.SYSTEM.CONST>
0

>  <SCORE.SYSTEM.DIHEDRAL>
1.54397

>  <SCORE.SYSTEM.POLAR>
-2.79161

>  <SCORE.SYSTEM.VDW>
-0.554411

>  <SCORE.SYSTEM.norm>
-0.264969

>  <SCORE.heavy>
35

>  <SCORE.norm>
-0.706908

$$$$

  rDOCK(R)          3D
libRbt.so/2013.1/901 2013/11/27
 36 40  0  0  0  0  0  0  0  0999 V2000
    7.5667  -32.9196   -4.4500 C   0  0  0  0  0  0
    6.7372  -32.5721   -3.2076 C   0  0  0  0  0  0
    8.4223  -31.7239   -4.9056 C   0  0  0  0  0  0
    9.5205  -31.4702   -3.9488 N   0  0  0  0  0  0
   10.2706  -30.2620   -4.3491 C   0  0  0  0  0  0
   10.5438  -29.3754   -3.1485 C   0  0  0  0  0  0
   11.8561  -29.0694   -2.6778 C   0  0  0  0  0  0
   13.0687  -29.6650   -3.3559 C   0  0  0  0  0  0
   12.0213  -28.1704   -1.5835 C   0  0  0  0  0  0
   13.3404  -27.8449   -1.1108 N   0  0  0  0  0  0
   13.6874  -26.7660   -0.4702 C   0  0  0  0  0  0
   12.7540  -25.7492   -0.2506 O   0  0  0  0  0  0
   15.0952  -26.6088   -0.0287 C   0  0  0  0  0  0
   15.4204  -25.9781    1.1818 C   0  0  0  0  0  0
   16.7197  -25.8391    1.5517 N   0  0  0  0  0  0
   17.7272  -26.3132    0.7724 C   0  0  0  0  0  0
   19.1479  -26.1051    1.1785 C   0  0  0  0  0  0
   17.4396  -26.9294   -0.4030 N   0  0  0  0  0  0
   16.1557  -27.0900   -0.8143 C   0  0  0  0  0  0
   10.8799  -27.6679   -0.9289 C   0  0  0  0  0  0
    9.6598  -28.0120   -1.3995 N   0  0  0  0  0  0
    8.4443  -27.6616   -0.9585 C   0  0  0  0  0  0
    7.5200  -28.2733   -1.7851 C   0  0  0  0  0  0
    8.1560  -29.0008   -2.7339 N   0  0  0  0  0  0
    9.4644  -28.8112   -2.4564 C   0  0  0  0  0  0
   10.4130  -32.6469   -3.8819 C   0  0  0  0  0  0
    9.6404  -33.8570   -3.3572 C   0  0  0  0  0  0
    8.4403  -34.0734   -4.1772 N   0  0  0  0  0  0
    8.2064  -35.3585   -4.7895 C   0  0  0  0  0  0
    9.1905  -36.0634   -5.1481 O   0  0  0  0  0  0
    6.8044  -35.9138   -4.9528 C   0  0  0  0  0  0
    6.0524  -35.2209   -6.0927 C   0  0  0  0  0  0
    6.1340  -36.1469   -7.3072 C   0  0  0  0  0  0
    6.8135  -37.4344   -6.8508 C   0  0  0  0  0  0
    6.8398  -37.3913   -5.3317 C   0  0  0  0  0  0
   12.9978  -24.8706    0.1871 H   0  0  0  0  0  0
  1  2  1  0  0  0
  1  3  1  0  0  0
  3  4  1  0  0  0
  4  5  1  0  0  0
  5  6  1  0  0  0
  6  7  2  0  0  0
  7  8  1  0  0  0
  7  9  1  0  0  0
  9 10  1  0  0  0
 10 11  2  0  0  0
 11 12  1  0  0  0
 11 13  1  0  0  0
 13 14  2  0  0  0
 14 15  1  0  0  0
 15 16  2  0  0  0
 16 17  1  0  0  0
 16 18  1  0  0  0
 18 19  2  0  0  0
  9 20  2  0  0  0
 20 21  1  0  0  0
 21 22  1  0  0  0
 22 23  2  0  0  0
 23 24  1  0  0  0
 24 25  2  0  0  0
  4 26  1  0  0  0
 26 27  1  0  0  0
 27 28  1  0  0  0
 28 29  1  0  0  0
 29 30  2  0  0  0
 29 31  1  0  0  0
 31 32  1  0  0  0
 32 33  1  0  0  0
 33 34  1  0  0  0
 34 35  1  0  0  0
 28  1  1  0  0  0
 35 31  1  0  0  0
 25  6  1  0  0  0
 19 13  1  0  0  0
 25 21  1  0  0  0
 12 36  1  0  0  0
M  END
>  <CHROM.0>
-148.62676394,-6.60600881,14.30008842,-177.21022746,-61.96435666,-4.80691261

>  <CHROM.1>
135.32289234,117.25016651,155.48063840,-175.80441041,-144.23520648,75.41229874
10.83741012,-30.45579757,-2.66343700,2.25717281,0.15118960,-2.70162767

>  <RI>
2.95534e+07

>  <Rbt.Current_Directory>
/extra/banzai2/j5wagner/CELPP/2016_10_17_rdock_implementation/normal_run/tutorialVideo/tutorial_rdock_implementation/full_week_run/4-docking/5m96/hiResHolo_5aph_docking

>  <Rbt.Executable>
rbdock ($Id: //depot/dev/client3/rdock/2013.1/src/exe/rbdock.cxx#4 $)

>  <Rbt.Library>
libRbt.so (2013.1, Build901 2013/11/27)

>  <Rbt.Parameter_File>
/home/j5wagner/env_00/source/rDock/rDock_2013.1_src//data/scripts/dock.prm

>  <Rbt.Receptor>
/extra/banzai2/j5wagner/CELPP/2016_10_17_rdock_implementation/normal_run/tutorialVideo/tutorial_rdock_implementation/full_week_run/4-docking/5m96/hiResHolo_5aph_tech_prep/rDockGridGenInput.prm

>  <SCORE>
-24.5715

>  <SCORE.INTER>
-17.4079

>  <SCORE.INTER.CONST>
1

>  <SCORE.INTER.POLAR>
-0.849328

>  <SCORE.INTER.REPUL>
0

>  <SCORE.INTER.ROT>
5

>  <SCORE.INTER.VDW>
-24.9202

>  <SCORE.INTER.norm>
-0.497369

>  <SCORE.INTRA>
0.169098

>  <SCORE.INTRA.DIHEDRAL>
-0.181312

>  <SCORE.INTRA.DIHEDRAL.0>
9.74364

>  <SCORE.INTRA.POLAR>
0

>  <SCORE.INTRA.POLAR.0>
0

>  <SCORE.INTRA.REPUL>
-0.0651972

>  <SCORE.INTRA.REPUL.0>
0.108387

>  <SCORE.INTRA.VDW>
0.58574

>  <SCORE.INTRA.VDW.0>
-2.87247

>  <SCORE.INTRA.norm>
0.00483136

>  <SCORE.RESTR>
0

>  <SCORE.RESTR.CAVITY>
0

>  <SCORE.RESTR.norm>
0

>  <SCORE.SYSTEM>
-7.33266

>  <SCORE.SYSTEM.CONST>
0

>  <SCORE.SYSTEM.DIHEDRAL>
1.67083

>  <SCORE.SYSTEM.POLAR>
-2.24523

>  <SCORE.SYSTEM.VDW>
-0.534286

>  <SCORE.SYSTEM.norm>
-0.209505

>  <SCORE.heavy>
35

>  <SCORE.norm>
-0.702043

$$$$

  rDOCK(R)          3D
libRbt.so/2013.1/901 2013/11/27
 36 40  0  0  0  0  0  0  0  0999 V2000
    8.0612  -31.3890   -3.7943 C   0  0  0  0  0  0
    7.2539  -30.5843   -2.7680 C   0  0  0  0  0  0
    8.9548  -30.4720   -4.6485 C   0  0  0  0  0  0
   10.0686  -29.9271   -3.8432 N   0  0  0  0  0  0
   10.8577  -28.9746   -4.6511 C   0  0  0  0  0  0
   11.2665  -27.7730   -3.8197 C   0  0  0  0  0  0
   12.5241  -27.6680   -3.1525 C   0  0  0  0  0  0
   13.5203  -28.8030   -3.2180 C   0  0  0  0  0  0
   12.8521  -26.4715   -2.4498 C   0  0  0  0  0  0
   14.1226  -26.3507   -1.7861 N   0  0  0  0  0  0
   14.3676  -26.6071   -0.5334 C   0  0  0  0  0  0
   13.3262  -26.9686    0.3257 O   0  0  0  0  0  0
   15.7522  -26.4557   -0.0221 C   0  0  0  0  0  0
   16.0164  -26.2805    1.3448 C   0  0  0  0  0  0
   17.2945  -26.1326    1.7796 N   0  0  0  0  0  0
   18.3402  -26.1621    0.9120 C   0  0  0  0  0  0
   19.7308  -25.9491    1.4096 C   0  0  0  0  0  0
   18.1120  -26.3323   -0.4157 N   0  0  0  0  0  0
   16.8513  -26.4831   -0.8965 C   0  0  0  0  0  0
   11.8912  -25.4463   -2.3529 C   0  0  0  0  0  0
   10.7051  -25.6094   -2.9814 N   0  0  0  0  0  0
    9.6499  -24.7861   -3.0412 C   0  0  0  0  0  0
    8.6886  -25.4128   -3.8125 C   0  0  0  0  0  0
    9.1419  -26.6190   -4.2293 N   0  0  0  0  0  0
   10.3800  -26.6956   -3.6943 C   0  0  0  0  0  0
   10.9196  -31.0299   -3.3479 C   0  0  0  0  0  0
   10.1088  -31.9382   -2.4236 C   0  0  0  0  0  0
    8.8957  -32.3950   -3.1157 N   0  0  0  0  0  0
    8.6119  -33.8056   -3.2201 C   0  0  0  0  0  0
    9.5678  -34.6271   -3.2924 O   0  0  0  0  0  0
    7.1900  -34.3319   -3.1784 C   0  0  0  0  0  0
    6.3571  -33.8005   -4.3483 C   0  0  0  0  0  0
    6.3150  -34.9068   -5.4035 C   0  0  0  0  0  0
    7.0048  -36.1295   -4.8060 C   0  0  0  0  0  0
    7.1625  -35.8508   -3.3202 C   0  0  0  0  0  0
   13.4716  -27.1605    1.3081 H   0  0  0  0  0  0
  1  2  1  0  0  0
  1  3  1  0  0  0
  3  4  1  0  0  0
  4  5  1  0  0  0
  5  6  1  0  0  0
  6  7  2  0  0  0
  7  8  1  0  0  0
  7  9  1  0  0  0
  9 10  1  0  0  0
 10 11  2  0  0  0
 11 12  1  0  0  0
 11 13  1  0  0  0
 13 14  2  0  0  0
 14 15  1  0  0  0
 15 16  2  0  0  0
 16 17  1  0  0  0
 16 18  1  0  0  0
 18 19  2  0  0  0
  9 20  2  0  0  0
 20 21  1  0  0  0
 21 22  1  0  0  0
 22 23  2  0  0  0
 23 24  1  0  0  0
 24 25  2  0  0  0
  4 26  1  0  0  0
 26 27  1  0  0  0
 27 28  1  0  0  0
 28 29  1  0  0  0
 29 30  2  0  0  0
 29 31  1  0  0  0
 31 32  1  0  0  0
 32 33  1  0  0  0
 33 34  1  0  0  0
 34 35  1  0  0  0
 28  1  1  0  0  0
 35 31  1  0  0  0
 25  6  1  0  0  0
 19 13  1  0  0  0
 25 21  1  0  0  0
 12 36  1  0  0  0
M  END
>  <CHROM.0>
-146.68163522,-145.80806487,13.97141949,59.54790194,63.05711512,17.11431414

>  <CHROM.1>
139.89124092,94.90239245,-94.51079976,-178.94507384,158.67362602,62.24929002
11.45063578,-29.19357270,-2.47741130,2.51892455,0.50088303,3.03395631

>  <RI>
2.95534e+07

>  <Rbt.Current_Directory>
/extra/banzai2/j5wagner/CELPP/2016_10_17_rdock_implementation/normal_run/tutorialVideo/tutorial_rdock_implementation/full_week_run/4-docking/5m96/hiResHolo_5aph_docking

>  <Rbt.Executable>
rbdock ($Id: //depot/dev/client3/rdock/2013.1/src/exe/rbdock.cxx#4 $)

>  <Rbt.Library>
libRbt.so (2013.1, Build901 2013/11/27)

>  <Rbt.Parameter_File>
/home/j5wagner/env_00/source/rDock/rDock_2013.1_src//data/scripts/dock.prm

>  <Rbt.Receptor>
/extra/banzai2/j5wagner/CELPP/2016_10_17_rdock_implementation/normal_run/tutorialVideo/tutorial_rdock_implementation/full_week_run/4-docking/5m96/hiResHolo_5aph_tech_prep/rDockGridGenInput.prm

>  <SCORE>
-24.5494

>  <SCORE.INTER>
-16.696

>  <SCORE.INTER.CONST>
1

>  <SCORE.INTER.POLAR>
-0.890487

>  <SCORE.INTER.REPUL>
0

>  <SCORE.INTER.ROT>
5

>  <SCORE.INTER.VDW>
-24.0684

>  <SCORE.INTER.norm>
-0.477029

>  <SCORE.INTRA>
0.842796

>  <SCORE.INTRA.DIHEDRAL>
1.13248

>  <SCORE.INTRA.DIHEDRAL.0>
9.74364

>  <SCORE.INTRA.POLAR>
0

>  <SCORE.INTRA.POLAR.0>
0

>  <SCORE.INTRA.REPUL>
-0.108387

>  <SCORE.INTRA.REPUL.0>
0.108387

>  <SCORE.INTRA.VDW>
0.818493

>  <SCORE.INTRA.VDW.0>
-2.87247

>  <SCORE.INTRA.norm>
0.0240799

>  <SCORE.RESTR>
0

>  <SCORE.RESTR.CAVITY>
0

>  <SCORE.RESTR.norm>
0

>  <SCORE.SYSTEM>
-8.69615

>  <SCORE.SYSTEM.CONST>
0

>  <SCORE.SYSTEM.DIHEDRAL>
3.71914

>  <SCORE.SYSTEM.POLAR>
-2.81098

>  <SCORE.SYSTEM.REPUL>
0.0164137

>  <SCORE.SYSTEM.VDW>
-1.08046

>  <SCORE.SYSTEM.norm>
-0.248462

>  <SCORE.heavy>
35

>  <SCORE.norm>
-0.701411

$$$$

  rDOCK(R)          3D
libRbt.so/2013.1/901 2013/11/27
 36 40  0  0  0  0  0  0  0  0999 V2000
    9.9643  -31.7633   -3.9990 C   0  0  0  0  0  0
   10.4528  -31.0455   -5.2634 C   0  0  0  0  0  0
    9.9446  -30.8142   -2.7874 C   0  0  0  0  0  0
    8.8666  -29.8117   -2.9241 N   0  0  0  0  0  0
    8.9244  -28.8512   -1.8030 C   0  0  0  0  0  0
    9.9544  -27.7702   -2.0728 C   0  0  0  0  0  0
   11.2309  -27.7222   -1.4357 C   0  0  0  0  0  0
   11.6088  -28.7600   -0.4037 C   0  0  0  0  0  0
   12.1642  -26.7083   -1.8018 C   0  0  0  0  0  0
   13.4584  -26.6599   -1.1755 N   0  0  0  0  0  0
   14.4410  -25.8667   -1.4921 C   0  0  0  0  0  0
   14.3219  -25.0033   -2.5846 O   0  0  0  0  0  0
   15.7027  -25.9332   -0.7143 C   0  0  0  0  0  0
   16.9524  -26.0237   -1.3462 C   0  0  0  0  0  0
   18.0884  -26.0952   -0.6055 N   0  0  0  0  0  0
   18.0450  -26.0693    0.7527 C   0  0  0  0  0  0
   19.3038  -26.1977    1.5435 C   0  0  0  0  0  0
   16.8487  -25.9802    1.3889 N   0  0  0  0  0  0
   15.6869  -25.9076    0.6901 C   0  0  0  0  0  0
   11.7757  -25.7175   -2.7243 C   0  0  0  0  0  0
   10.5441  -25.7953   -3.2774 N   0  0  0  0  0  0
    9.9568  -24.9887   -4.1713 C   0  0  0  0  0  0
    8.6979  -25.5042   -4.4186 C   0  0  0  0  0  0
    8.5022  -26.6239   -3.6823 N   0  0  0  0  0  0
    9.6593  -26.7613   -2.9987 C   0  0  0  0  0  0
    7.5525  -30.4875   -2.9723 C   0  0  0  0  0  0
    7.4761  -31.3896   -4.2039 C   0  0  0  0  0  0
    8.6162  -32.3166   -4.2118 N   0  0  0  0  0  0
    8.3900  -33.7384   -4.3050 C   0  0  0  0  0  0
    7.3456  -34.2351   -3.7987 O   0  0  0  0  0  0
    9.3468  -34.6443   -5.0564 C   0  0  0  0  0  0
    8.8236  -36.0816   -5.1287 C   0  0  0  0  0  0
    8.1957  -36.2576   -6.5122 C   0  0  0  0  0  0
    8.4641  -34.9776   -7.2979 C   0  0  0  0  0  0
    9.5012  -34.1971   -6.5070 C   0  0  0  0  0  0
   15.0488  -24.3499   -2.8448 H   0  0  0  0  0  0
  1  2  1  0  0  0
  1  3  1  0  0  0
  3  4  1  0  0  0
  4  5  1  0  0  0
  5  6  1  0  0  0
  6  7  2  0  0  0
  7  8  1  0  0  0
  7  9  1  0  0  0
  9 10  1  0  0  0
 10 11  2  0  0  0
 11 12  1  0  0  0
 11 13  1  0  0  0
 13 14  2  0  0  0
 14 15  1  0  0  0
 15 16  2  0  0  0
 16 17  1  0  0  0
 16 18  1  0  0  0
 18 19  2  0  0  0
  9 20  2  0  0  0
 20 21  1  0  0  0
 21 22  1  0  0  0
 22 23  2  0  0  0
 23 24  1  0  0  0
 24 25  2  0  0  0
  4 26  1  0  0  0
 26 27  1  0  0  0
 27 28  1  0  0  0
 28 29  1  0  0  0
 29 30  2  0  0  0
 29 31  1  0  0  0
 31 32  1  0  0  0
 32 33  1  0  0  0
 33 34  1  0  0  0
 34 35  1  0  0  0
 28  1  1  0  0  0
 35 31  1  0  0  0
 25  6  1  0  0  0
 19 13  1  0  0  0
 25 21  1  0  0  0
 12 36  1  0  0  0
M  END
>  <CHROM.0>
-148.70454123,-157.53734703,13.96063002,-177.63585675,64.07342371,17.42708043

>  <CHROM.1>
82.35481090,-104.84373879,173.73292732,177.87689790,130.90515210,-174.48226757
11.37131926,-29.11007354,-2.80616334,-2.32775531,-0.38609916,0.19779233

>  <RI>
2.95534e+07

>  <Rbt.Current_Directory>
/extra/banzai2/j5wagner/CELPP/2016_10_17_rdock_implementation/normal_run/tutorialVideo/tutorial_rdock_implementation/full_week_run/4-docking/5m96/hiResHolo_5aph_docking

>  <Rbt.Executable>
rbdock ($Id: //depot/dev/client3/rdock/2013.1/src/exe/rbdock.cxx#4 $)

>  <Rbt.Library>
libRbt.so (2013.1, Build901 2013/11/27)

>  <Rbt.Parameter_File>
/home/j5wagner/env_00/source/rDock/rDock_2013.1_src//data/scripts/dock.prm

>  <Rbt.Receptor>
/extra/banzai2/j5wagner/CELPP/2016_10_17_rdock_implementation/normal_run/tutorialVideo/tutorial_rdock_implementation/full_week_run/4-docking/5m96/hiResHolo_5aph_tech_prep/rDockGridGenInput.prm

>  <SCORE>
-24.4143

>  <SCORE.INTER>
-17.8422

>  <SCORE.INTER.CONST>
1

>  <SCORE.INTER.POLAR>
-0.803463

>  <SCORE.INTER.REPUL>
0

>  <SCORE.INTER.ROT>
5

>  <SCORE.INTER.VDW>
-25.5105

>  <SCORE.INTER.norm>
-0.509778

>  <SCORE.INTRA>
0.479492

>  <SCORE.INTRA.DIHEDRAL>
-0.400849

>  <SCORE.INTRA.DIHEDRAL.0>
9.74364

>  <SCORE.INTRA.POLAR>
0

>  <SCORE.INTRA.POLAR.0>
0

>  <SCORE.INTRA.REPUL>
-0.108387

>  <SCORE.INTRA.REPUL.0>
0.108387

>  <SCORE.INTRA.VDW>
1.22185

>  <SCORE.INTRA.VDW.0>
-2.87247

>  <SCORE.INTRA.norm>
0.0136998

>  <SCORE.RESTR>
0

>  <SCORE.RESTR.CAVITY>
0

>  <SCORE.RESTR.norm>
0

>  <SCORE.SYSTEM>
-7.05155

>  <SCORE.SYSTEM.CONST>
0

>  <SCORE.SYSTEM.DIHEDRAL>
2.83694

>  <SCORE.SYSTEM.POLAR>
-2.24644

>  <SCORE.SYSTEM.VDW>
-0.832142

>  <SCORE.SYSTEM.norm>
-0.201473

>  <SCORE.heavy>
35

>  <SCORE.norm>
-0.697551

$$$$

  rDOCK(R)          3D
libRbt.so/2013.1/901 2013/11/27
 36 40  0  0  0  0  0  0  0  0999 V2000
    8.8029  -32.5324   -4.8272 C   0  0  0  0  0  0
    7.4292  -32.3302   -4.1756 C   0  0  0  0  0  0
    9.8500  -31.5702   -4.2384 C   0  0  0  0  0  0
   10.1869  -31.9481   -2.8493 N   0  0  0  0  0  0
   11.1176  -30.9589   -2.2679 C   0  0  0  0  0  0
   10.5177  -29.5659   -2.3093 C   0  0  0  0  0  0
   11.2198  -28.4200   -2.7905 C   0  0  0  0  0  0
   12.6512  -28.5432   -3.2605 C   0  0  0  0  0  0
   10.5534  -27.1613   -2.8580 C   0  0  0  0  0  0
   11.2481  -26.0036   -3.3545 N   0  0  0  0  0  0
   10.7328  -25.0340   -4.0540 C   0  0  0  0  0  0
    9.3972  -25.0951   -4.4610 O   0  0  0  0  0  0
   11.5956  -23.8967   -4.4581 C   0  0  0  0  0  0
   12.9955  -23.9924   -4.4396 C   0  0  0  0  0  0
   13.7575  -22.9289   -4.8040 N   0  0  0  0  0  0
   13.1891  -21.7607   -5.2030 C   0  0  0  0  0  0
   14.0488  -20.5920   -5.5522 C   0  0  0  0  0  0
   11.8368  -21.6423   -5.2319 N   0  0  0  0  0  0
   11.0348  -22.6782   -4.8754 C   0  0  0  0  0  0
    9.2384  -27.0528   -2.3651 C   0  0  0  0  0  0
    8.6296  -28.1649   -1.8949 N   0  0  0  0  0  0
    7.3987  -28.3152   -1.3881 C   0  0  0  0  0  0
    7.2557  -29.6499   -1.0568 C   0  0  0  0  0  0
    8.3908  -30.3260   -1.3543 N   0  0  0  0  0  0
    9.2035  -29.3747   -1.8636 C   0  0  0  0  0  0
   10.7753  -33.3041   -2.8240 C   0  0  0  0  0  0
    9.7529  -34.3245   -3.3242 C   0  0  0  0  0  0
    9.2563  -33.9220   -4.6473 N   0  0  0  0  0  0
    9.3323  -34.8407   -5.7570 C   0  0  0  0  0  0
   10.2813  -35.6715   -5.8109 O   0  0  0  0  0  0
    8.2600  -34.8769   -6.8292 C   0  0  0  0  0  0
    8.6829  -35.7401   -8.0212 C   0  0  0  0  0  0
    8.0010  -37.0985   -7.8512 C   0  0  0  0  0  0
    7.0784  -36.9941   -6.6406 C   0  0  0  0  0  0
    6.9784  -35.5156   -6.3025 C   0  0  0  0  0  0
    8.9794  -24.4006   -5.0661 H   0  0  0  0  0  0
  1  2  1  0  0  0
  1  3  1  0  0  0
  3  4  1  0  0  0
  4  5  1  0  0  0
  5  6  1  0  0  0
  6  7  2  0  0  0
  7  8  1  0  0  0
  7  9  1  0  0  0
  9 10  1  0  0  0
 10 11  2  0  0  0
 11 12  1  0  0  0
 11 13  1  0  0  0
 13 14  2  0  0  0
 14 15  1  0  0  0
 15 16  2  0  0  0
 16 17  1  0  0  0
 16 18  1  0  0  0
 18 19  2  0  0  0
  9 20  2  0  0  0
 20 21  1  0  0  0
 21 22  1  0  0  0
 22 23  2  0  0  0
 23 24  1  0  0  0
 24 25  2  0  0  0
  4 26  1  0  0  0
 26 27  1  0  0  0
 27 28  1  0  0  0
 28 29  1  0  0  0
 29 30  2  0  0  0
 29 31  1  0  0  0
 31 32  1  0  0  0
 32 33  1  0  0  0
 33 34  1  0  0  0
 34 35  1  0  0  0
 28  1  1  0  0  0
 35 31  1  0  0  0
 25  6  1  0  0  0
 19 13  1  0  0  0
 25 21  1  0  0  0
 12 36  1  0  0  0
M  END
>  <CHROM.0>
-146.65742411,-167.64216375,12.50077360,60.52013140,62.37778402,-14.74509357

>  <CHROM.1>
57.51579648,-131.72115958,144.99145184,-175.00623946,17.81181259,169.60304750
10.00892016,-29.54548757,-4.14635510,-2.20353016,1.07060792,0.67781514

>  <RI>
2.95534e+07

>  <Rbt.Current_Directory>
/extra/banzai2/j5wagner/CELPP/2016_10_17_rdock_implementation/normal_run/tutorialVideo/tutorial_rdock_implementation/full_week_run/4-docking/5m96/hiResHolo_5aph_docking

>  <Rbt.Executable>
rbdock ($Id: //depot/dev/client3/rdock/2013.1/src/exe/rbdock.cxx#4 $)

>  <Rbt.Library>
libRbt.so (2013.1, Build901 2013/11/27)

>  <Rbt.Parameter_File>
/home/j5wagner/env_00/source/rDock/rDock_2013.1_src//data/scripts/dock.prm

>  <Rbt.Receptor>
/extra/banzai2/j5wagner/CELPP/2016_10_17_rdock_implementation/normal_run/tutorialVideo/tutorial_rdock_implementation/full_week_run/4-docking/5m96/hiResHolo_5aph_tech_prep/rDockGridGenInput.prm

>  <SCORE>
-24.4118

>  <SCORE.INTER>
-14.4423

>  <SCORE.INTER.CONST>
1

>  <SCORE.INTER.POLAR>
0

>  <SCORE.INTER.REPUL>
0

>  <SCORE.INTER.ROT>
5

>  <SCORE.INTER.VDW>
-24.8423

>  <SCORE.INTER.norm>
-0.412637

>  <SCORE.INTRA>
-0.868115

>  <SCORE.INTRA.DIHEDRAL>
-4.2713

>  <SCORE.INTRA.DIHEDRAL.0>
9.74364

>  <SCORE.INTRA.POLAR>
0

>  <SCORE.INTRA.POLAR.0>
0

>  <SCORE.INTRA.REPUL>
0.0966284

>  <SCORE.INTRA.REPUL.0>
0.108387

>  <SCORE.INTRA.VDW>
0.784391

>  <SCORE.INTRA.VDW.0>
-2.87247

>  <SCORE.INTRA.norm>
-0.0248033

>  <SCORE.RESTR>
0

>  <SCORE.RESTR.CAVITY>
0

>  <SCORE.RESTR.norm>
0

>  <SCORE.SYSTEM>
-9.1014

>  <SCORE.SYSTEM.CONST>
0

>  <SCORE.SYSTEM.DIHEDRAL>
2.08307

>  <SCORE.SYSTEM.POLAR>
-2.80715

>  <SCORE.SYSTEM.REPUL>
0.0166775

>  <SCORE.SYSTEM.VDW>
-0.682015

>  <SCORE.SYSTEM.norm>
-0.26004

>  <SCORE.heavy>
35

>  <SCORE.norm>
-0.697481

$$$$

  rDOCK(R)          3D
libRbt.so/2013.1/901 2013/11/27
 36 40  0  0  0  0  0  0  0  0999 V2000
    7.4105  -32.3543   -4.6263 C   0  0  0  0  0  0
    7.1373  -32.4757   -3.1220 C   0  0  0  0  0  0
    8.1401  -31.0406   -4.9596 C   0  0  0  0  0  0
    9.5334  -31.0748   -4.4661 N   0  0  0  0  0  0
   10.1872  -29.7721   -4.7073 C   0  0  0  0  0  0
   10.4692  -29.0605   -3.3972 C   0  0  0  0  0  0
   11.7847  -28.7637   -2.9294 C   0  0  0  0  0  0
   12.9941  -29.1928   -3.7283 C   0  0  0  0  0  0
   11.9540  -28.0294   -1.7190 C   0  0  0  0  0  0
   13.2756  -27.7133   -1.2466 N   0  0  0  0  0  0
   13.6252  -26.6491   -0.5833 C   0  0  0  0  0  0
   12.6921  -25.6386   -0.3351 O   0  0  0  0  0  0
   15.0353  -26.5006   -0.1464 C   0  0  0  0  0  0
   16.0916  -27.0905   -0.8573 C   0  0  0  0  0  0
   17.3707  -26.9460   -0.4243 N   0  0  0  0  0  0
   17.6582  -26.2237    0.6905 C   0  0  0  0  0  0
   19.0669  -26.1204    1.1717 C   0  0  0  0  0  0
   16.6547  -25.6409    1.3955 N   0  0  0  0  0  0
   15.3608  -25.7592    1.0015 C   0  0  0  0  0  0
   10.8188  -27.6854   -0.9596 C   0  0  0  0  0  0
    9.5970  -28.0152   -1.4361 N   0  0  0  0  0  0
    8.3860  -27.7935   -0.9081 C   0  0  0  0  0  0
    7.4570  -28.3206   -1.7860 C   0  0  0  0  0  0
    8.0858  -28.8681   -2.8533 N   0  0  0  0  0  0
    9.3947  -28.6580   -2.5935 C   0  0  0  0  0  0
   10.2762  -32.1682   -5.1282 C   0  0  0  0  0  0
    9.6476  -33.5151   -4.7713 C   0  0  0  0  0  0
    8.2144  -33.4955   -5.0954 N   0  0  0  0  0  0
    7.6542  -34.5116   -5.9527 C   0  0  0  0  0  0
    8.3662  -35.0149   -6.8657 O   0  0  0  0  0  0
    6.2478  -35.0385   -5.7407 C   0  0  0  0  0  0
    5.7397  -35.8002   -6.9681 C   0  0  0  0  0  0
    5.9172  -37.2903   -6.6722 C   0  0  0  0  0  0
    6.4020  -37.4114   -5.2306 C   0  0  0  0  0  0
    6.2055  -36.0449   -4.5947 C   0  0  0  0  0  0
   12.9379  -24.7694    0.1199 H   0  0  0  0  0  0
  1  2  1  0  0  0
  1  3  1  0  0  0
  3  4  1  0  0  0
  4  5  1  0  0  0
  5  6  1  0  0  0
  6  7  2  0  0  0
  7  8  1  0  0  0
  7  9  1  0  0  0
  9 10  1  0  0  0
 10 11  2  0  0  0
 11 12  1  0  0  0
 11 13  1  0  0  0
 13 14  2  0  0  0
 14 15  1  0  0  0
 15 16  2  0  0  0
 16 17  1  0  0  0
 16 18  1  0  0  0
 18 19  2  0  0  0
  9 20  2  0  0  0
 20 21  1  0  0  0
 21 22  1  0  0  0
 22 23  2  0  0  0
 23 24  1  0  0  0
 24 25  2  0  0  0
  4 26  1  0  0  0
 26 27  1  0  0  0
 27 28  1  0  0  0
 28 29  1  0  0  0
 29 30  2  0  0  0
 29 31  1  0  0  0
 31 32  1  0  0  0
 32 33  1  0  0  0
 33 34  1  0  0  0
 34 35  1  0  0  0
 28  1  1  0  0  0
 35 31  1  0  0  0
 25  6  1  0  0  0
 19 13  1  0  0  0
 25 21  1  0  0  0
 12 36  1  0  0  0
M  END
>  <CHROM.0>
6.61350356,10.13523141,14.00869201,-178.22052545,64.03962211,-10.33004663

>  <CHROM.1>
112.13456063,116.00730718,147.59734235,-175.69620605,28.28771668,164.24271775
10.68427673,-30.21654736,-2.90657281,2.27228220,0.08861953,-2.62724184

>  <RI>
2.95534e+07

>  <Rbt.Current_Directory>
/extra/banzai2/j5wagner/CELPP/2016_10_17_rdock_implementation/normal_run/tutorialVideo/tutorial_rdock_implementation/full_week_run/4-docking/5m96/hiResHolo_5aph_docking

>  <Rbt.Executable>
rbdock ($Id: //depot/dev/client3/rdock/2013.1/src/exe/rbdock.cxx#4 $)

>  <Rbt.Library>
libRbt.so (2013.1, Build901 2013/11/27)

>  <Rbt.Parameter_File>
/home/j5wagner/env_00/source/rDock/rDock_2013.1_src//data/scripts/dock.prm

>  <Rbt.Receptor>
/extra/banzai2/j5wagner/CELPP/2016_10_17_rdock_implementation/normal_run/tutorialVideo/tutorial_rdock_implementation/full_week_run/4-docking/5m96/hiResHolo_5aph_tech_prep/rDockGridGenInput.prm

>  <SCORE>
-24.3944

>  <SCORE.INTER>
-18.1702

>  <SCORE.INTER.CONST>
1

>  <SCORE.INTER.POLAR>
-0.717268

>  <SCORE.INTER.REPUL>
0

>  <SCORE.INTER.ROT>
5

>  <SCORE.INTER.VDW>
-26.1314

>  <SCORE.INTER.norm>
-0.519147

>  <SCORE.INTRA>
-0.57663

>  <SCORE.INTRA.DIHEDRAL>
-0.168918

>  <SCORE.INTRA.DIHEDRAL.0>
9.74364

>  <SCORE.INTRA.POLAR>
0

>  <SCORE.INTRA.POLAR.0>
0

>  <SCORE.INTRA.REPUL>
-0.108387

>  <SCORE.INTRA.REPUL.0>
0.108387

>  <SCORE.INTRA.VDW>
0.0497651

>  <SCORE.INTRA.VDW.0>
-2.87247

>  <SCORE.INTRA.norm>
-0.0164752

>  <SCORE.RESTR>
0

>  <SCORE.RESTR.CAVITY>
0

>  <SCORE.RESTR.norm>
0

>  <SCORE.SYSTEM>
-5.64758

>  <SCORE.SYSTEM.CONST>
0

>  <SCORE.SYSTEM.DIHEDRAL>
0.645806

>  <SCORE.SYSTEM.POLAR>
-1.71824

>  <SCORE.SYSTEM.VDW>
-0.128458

>  <SCORE.SYSTEM.norm>
-0.161359

>  <SCORE.heavy>
35

>  <SCORE.norm>
-0.696982

$$$$

  rDOCK(R)          3D
libRbt.so/2013.1/901 2013/11/27
 36 40  0  0  0  0  0  0  0  0999 V2000
    8.5069  -33.1392   -4.7436 C   0  0  0  0  0  0
    7.1615  -32.8296   -4.0752 C   0  0  0  0  0  0
    9.5935  -32.1409   -4.3058 C   0  0  0  0  0  0
    9.9718  -32.3633   -2.8939 N   0  0  0  0  0  0
   10.9424  -31.3363   -2.4628 C   0  0  0  0  0  0
   10.4280  -29.9439   -2.7769 C   0  0  0  0  0  0
   11.0319  -29.0797   -3.7392 C   0  0  0  0  0  0
   12.2727  -29.5155   -4.4845 C   0  0  0  0  0  0
   10.4396  -27.8136   -4.0203 C   0  0  0  0  0  0
   11.0329  -26.9415   -4.9985 N   0  0  0  0  0  0
   11.6172  -25.8019   -4.7647 C   0  0  0  0  0  0
   11.6417  -25.2785   -3.4691 O   0  0  0  0  0  0
   12.2039  -25.0446   -5.8977 C   0  0  0  0  0  0
   12.1601  -25.5354   -7.2116 C   0  0  0  0  0  0
   12.7173  -24.8236   -8.2252 N   0  0  0  0  0  0
   13.3148  -23.6245   -7.9967 C   0  0  0  0  0  0
   13.9615  -22.8854   -9.1202 C   0  0  0  0  0  0
   13.3690  -23.1261   -6.7348 N   0  0  0  0  0  0
   12.8267  -23.8028   -5.6901 C   0  0  0  0  0  0
    9.3161  -27.4006   -3.2779 C   0  0  0  0  0  0
    8.8006  -28.2480   -2.3588 N   0  0  0  0  0  0
    7.7480  -28.0885   -1.5456 C   0  0  0  0  0  0
    7.6305  -29.2473   -0.8007 C   0  0  0  0  0  0
    8.6045  -30.1222   -1.1470 N   0  0  0  0  0  0
    9.2967  -29.4655   -2.1032 C   0  0  0  0  0  0
   10.5331  -33.7212   -2.7301 C   0  0  0  0  0  0
    9.4732  -34.7676   -3.0740 C   0  0  0  0  0  0
    8.9382  -34.5091   -4.4180 N   0  0  0  0  0  0
    8.9562  -35.5517   -5.4149 C   0  0  0  0  0  0
    9.8857  -36.4059   -5.4028 O   0  0  0  0  0  0
    7.8460  -35.6859   -6.4397 C   0  0  0  0  0  0
    7.8820  -37.0496   -7.1353 C   0  0  0  0  0  0
    6.8240  -37.9225   -6.4585 C   0  0  0  0  0  0
    6.0786  -37.0403   -5.4616 C   0  0  0  0  0  0
    6.4742  -35.6069   -5.7764 C   0  0  0  0  0  0
   12.0589  -24.3834   -3.2505 H   0  0  0  0  0  0
  1  2  1  0  0  0
  1  3  1  0  0  0
  3  4  1  0  0  0
  4  5  1  0  0  0
  5  6  1  0  0  0
  6  7  2  0  0  0
  7  8  1  0  0  0
  7  9  1  0  0  0
  9 10  1  0  0  0
 10 11  2  0  0  0
 11 12  1  0  0  0
 11 13  1  0  0  0
 13 14  2  0  0  0
 14 15  1  0  0  0
 15 16  2  0  0  0
 16 17  1  0  0  0
 16 18  1  0  0  0
 18 19  2  0  0  0
  9 20  2  0  0  0
 20 21  1  0  0  0
 21 22  1  0  0  0
 22 23  2  0  0  0
 23 24  1  0  0  0
 24 25  2  0  0  0
  4 26  1  0  0  0
 26 27  1  0  0  0
 27 28  1  0  0  0
 28 29  1  0  0  0
 29 30  2  0  0  0
 29 31  1  0  0  0
 31 32  1  0  0  0
 32 33  1  0  0  0
 33 34  1  0  0  0
 34 35  1  0  0  0
 28  1  1  0  0  0
 35 31  1  0  0  0
 25  6  1  0  0  0
 19 13  1  0  0  0
 25 21  1  0  0  0
 12 36  1  0  0  0
M  END
>  <CHROM.0>
19.31539318,17.99901751,13.79204573,58.25699180,-63.40181983,17.84306809

>  <CHROM.1>
51.74665872,-113.12902845,-111.74739159,-177.99963657,-0.87693777,-164.86220244
9.97994999,-30.23120790,-4.61428661,-2.51880587,1.09674893,0.79006516

>  <RI>
2.95534e+07

>  <Rbt.Current_Directory>
/extra/banzai2/j5wagner/CELPP/2016_10_17_rdock_implementation/normal_run/tutorialVideo/tutorial_rdock_implementation/full_week_run/4-docking/5m96/hiResHolo_5aph_docking

>  <Rbt.Executable>
rbdock ($Id: //depot/dev/client3/rdock/2013.1/src/exe/rbdock.cxx#4 $)

>  <Rbt.Library>
libRbt.so (2013.1, Build901 2013/11/27)

>  <Rbt.Parameter_File>
/home/j5wagner/env_00/source/rDock/rDock_2013.1_src//data/scripts/dock.prm

>  <Rbt.Receptor>
/extra/banzai2/j5wagner/CELPP/2016_10_17_rdock_implementation/normal_run/tutorialVideo/tutorial_rdock_implementation/full_week_run/4-docking/5m96/hiResHolo_5aph_tech_prep/rDockGridGenInput.prm

>  <SCORE>
-24.21

>  <SCORE.INTER>
-16.3263

>  <SCORE.INTER.CONST>
1

>  <SCORE.INTER.POLAR>
-0.0565074

>  <SCORE.INTER.REPUL>
0

>  <SCORE.INTER.ROT>
5

>  <SCORE.INTER.VDW>
-26.5341

>  <SCORE.INTER.norm>
-0.466465

>  <SCORE.INTRA>
-0.416665

>  <SCORE.INTRA.DIHEDRAL>
-2.66956

>  <SCORE.INTRA.DIHEDRAL.0>
9.74364

>  <SCORE.INTRA.POLAR>
0

>  <SCORE.INTRA.POLAR.0>
0

>  <SCORE.INTRA.REPUL>
-0.0815276

>  <SCORE.INTRA.REPUL.0>
0.108387

>  <SCORE.INTRA.VDW>
1.32575

>  <SCORE.INTRA.VDW.0>
-2.87247

>  <SCORE.INTRA.norm>
-0.0119047

>  <SCORE.RESTR>
0.0146381

>  <SCORE.RESTR.CAVITY>
0.0146381

>  <SCORE.RESTR.norm>
0.00041823

>  <SCORE.SYSTEM>
-7.48169

>  <SCORE.SYSTEM.CONST>
0

>  <SCORE.SYSTEM.DIHEDRAL>
1.8182

>  <SCORE.SYSTEM.POLAR>
-2.26814

>  <SCORE.SYSTEM.VDW>
-0.679095

>  <SCORE.SYSTEM.norm>
-0.213763

>  <SCORE.heavy>
35

>  <SCORE.norm>
-0.691714

$$$$

  rDOCK(R)          3D
libRbt.so/2013.1/901 2013/11/27
 36 40  0  0  0  0  0  0  0  0999 V2000
    8.5136  -32.7580   -5.3253 C   0  0  0  0  0  0
    7.3193  -32.5300   -4.3903 C   0  0  0  0  0  0
    9.5800  -31.6620   -5.1505 C   0  0  0  0  0  0
   10.2664  -31.8011   -3.8484 N   0  0  0  0  0  0
   11.2160  -30.6858   -3.6558 C   0  0  0  0  0  0
   10.4973  -29.4475   -3.1536 C   0  0  0  0  0  0
   10.9166  -28.1168   -3.4553 C   0  0  0  0  0  0
   12.1571  -27.8768   -4.2851 C   0  0  0  0  0  0
   10.1402  -27.0118   -2.9981 C   0  0  0  0  0  0
   10.5470  -25.6674   -3.3089 N   0  0  0  0  0  0
    9.7872  -24.7181   -3.7741 C   0  0  0  0  0  0
    8.4528  -24.9811   -4.0956 O   0  0  0  0  0  0
   10.3715  -23.3747   -4.0094 C   0  0  0  0  0  0
   11.7378  -23.2039   -4.2798 C   0  0  0  0  0  0
   12.2440  -21.9595   -4.4787 N   0  0  0  0  0  0
   11.4461  -20.8603   -4.4331 C   0  0  0  0  0  0
   12.0357  -19.5007   -4.6075 C   0  0  0  0  0  0
   10.1200  -20.9981   -4.1753 N   0  0  0  0  0  0
    9.5697  -22.2220   -3.9688 C   0  0  0  0  0  0
    9.0187  -27.2516   -2.1805 C   0  0  0  0  0  0
    8.6818  -28.5314   -1.9030 N   0  0  0  0  0  0
    7.6694  -29.0075   -1.1660 C   0  0  0  0  0  0
    7.7580  -30.3870   -1.1965 C   0  0  0  0  0  0
    8.8194  -30.7672   -1.9467 N   0  0  0  0  0  0
    9.3549  -29.5967   -2.3567 C   0  0  0  0  0  0
   10.9624  -33.1037   -3.7818 C   0  0  0  0  0  0
    9.9460  -34.2421   -3.8697 C   0  0  0  0  0  0
    9.1183  -34.0768   -5.0726 N   0  0  0  0  0  0
    9.0126  -35.1514   -6.0293 C   0  0  0  0  0  0
    9.9923  -35.9291   -6.1998 O   0  0  0  0  0  0
    7.7258  -35.4104   -6.7894 C   0  0  0  0  0  0
    7.7485  -36.7719   -7.4899 C   0  0  0  0  0  0
    6.9575  -37.7393   -6.6081 C   0  0  0  0  0  0
    6.3607  -36.9252   -5.4641 C   0  0  0  0  0  0
    6.5302  -35.4630   -5.8429 C   0  0  0  0  0  0
    8.0287  -25.8896   -3.9623 H   0  0  0  0  0  0
  1  2  1  0  0  0
  1  3  1  0  0  0
  3  4  1  0  0  0
  4  5  1  0  0  0
  5  6  1  0  0  0
  6  7  2  0  0  0
  7  8  1  0  0  0
  7  9  1  0  0  0
  9 10  1  0  0  0
 10 11  2  0  0  0
 11 12  1  0  0  0
 11 13  1  0  0  0
 13 14  2  0  0  0
 14 15  1  0  0  0
 15 16  2  0  0  0
 16 17  1  0  0  0
 16 18  1  0  0  0
 18 19  2  0  0  0
  9 20  2  0  0  0
 20 21  1  0  0  0
 21 22  1  0  0  0
 22 23  2  0  0  0
 23 24  1  0  0  0
 24 25  2  0  0  0
  4 26  1  0  0  0
 26 27  1  0  0  0
 27 28  1  0  0  0
 28 29  1  0  0  0
 29 30  2  0  0  0
 29 31  1  0  0  0
 31 32  1  0  0  0
 32 33  1  0  0  0
 33 34  1  0  0  0
 34 35  1  0  0  0
 28  1  1  0  0  0
 35 31  1  0  0  0
 25  6  1  0  0  0
 19 13  1  0  0  0
 25 21  1  0  0  0
 12 36  1  0  0  0
M  END
>  <CHROM.0>
8.49942491,2.46847852,14.11462390,-177.10187596,-62.03732430,14.59442972

>  <CHROM.1>
81.71201509,-149.12211380,132.54581922,1.49305138,26.43636562,-166.85376583
9.48915858,-29.48928296,-4.18248522,-1.95947969,1.01452760,0.46508516

>  <RI>
2.95534e+07

>  <Rbt.Current_Directory>
/extra/banzai2/j5wagner/CELPP/2016_10_17_rdock_implementation/normal_run/tutorialVideo/tutorial_rdock_implementation/full_week_run/4-docking/5m96/hiResHolo_5aph_docking

>  <Rbt.Executable>
rbdock ($Id: //depot/dev/client3/rdock/2013.1/src/exe/rbdock.cxx#4 $)

>  <Rbt.Library>
libRbt.so (2013.1, Build901 2013/11/27)

>  <Rbt.Parameter_File>
/home/j5wagner/env_00/source/rDock/rDock_2013.1_src//data/scripts/dock.prm

>  <Rbt.Receptor>
/extra/banzai2/j5wagner/CELPP/2016_10_17_rdock_implementation/normal_run/tutorialVideo/tutorial_rdock_implementation/full_week_run/4-docking/5m96/hiResHolo_5aph_tech_prep/rDockGridGenInput.prm

>  <SCORE>
-24.0853

>  <SCORE.INTER>
-20.2267

>  <SCORE.INTER.CONST>
1

>  <SCORE.INTER.POLAR>
-0.938083

>  <SCORE.INTER.REPUL>
0

>  <SCORE.INTER.ROT>
5

>  <SCORE.INTER.VDW>
-27.4372

>  <SCORE.INTER.norm>
-0.577904

>  <SCORE.INTRA>
1.8737

>  <SCORE.INTRA.DIHEDRAL>
-1.05754

>  <SCORE.INTRA.DIHEDRAL.0>
9.74364

>  <SCORE.INTRA.POLAR>
0

>  <SCORE.INTRA.POLAR.0>
0

>  <SCORE.INTRA.REPUL>
0.35002

>  <SCORE.INTRA.REPUL.0>
0.108387

>  <SCORE.INTRA.VDW>
0.652365

>  <SCORE.INTRA.VDW.0>
-2.87247

>  <SCORE.INTRA.norm>
0.0535341

>  <SCORE.RESTR>
0.0074471

>  <SCORE.RESTR.CAVITY>
0.0074471

>  <SCORE.RESTR.norm>
0.000212774

>  <SCORE.SYSTEM>
-5.73975

>  <SCORE.SYSTEM.CONST>
0

>  <SCORE.SYSTEM.DIHEDRAL>
0.817685

>  <SCORE.SYSTEM.POLAR>
-1.72

>  <SCORE.SYSTEM.VDW>
-0.300581

>  <SCORE.SYSTEM.norm>
-0.163993

>  <SCORE.heavy>
35

>  <SCORE.norm>
-0.68815

$$$$

  rDOCK(R)          3D
libRbt.so/2013.1/901 2013/11/27
 36 40  0  0  0  0  0  0  0  0999 V2000
    8.6143  -32.9391   -4.8928 C   0  0  0  0  0  0
    7.2825  -32.5410   -4.2444 C   0  0  0  0  0  0
    9.7389  -31.9602   -4.5106 C   0  0  0  0  0  0
   10.1099  -32.1173   -3.0881 N   0  0  0  0  0  0
   11.1197  -31.1057   -2.7143 C   0  0  0  0  0  0
   10.5096  -29.7166   -2.6978 C   0  0  0  0  0  0
   11.2021  -28.5471   -3.1340 C   0  0  0  0  0  0
   12.6329  -28.6408   -3.6124 C   0  0  0  0  0  0
   10.5265  -27.2916   -3.1487 C   0  0  0  0  0  0
   11.2115  -26.1097   -3.5998 N   0  0  0  0  0  0
   10.6793  -25.0988   -4.2240 C   0  0  0  0  0  0
    9.3306  -25.1304   -4.5892 O   0  0  0  0  0  0
   11.5352  -23.9433   -4.5897 C   0  0  0  0  0  0
   12.9347  -24.0116   -4.5142 C   0  0  0  0  0  0
   13.6897  -22.9321   -4.8444 N   0  0  0  0  0  0
   13.1151  -21.7739   -5.2636 C   0  0  0  0  0  0
   13.9650  -20.5874   -5.5743 C   0  0  0  0  0  0
   11.7629  -21.6821   -5.3475 N   0  0  0  0  0  0
   10.9678  -22.7348   -5.0266 C   0  0  0  0  0  0
    9.2123  -27.2126   -2.6483 C   0  0  0  0  0  0
    8.6128  -28.3473   -2.2219 N   0  0  0  0  0  0
    7.3845  -28.5269   -1.7184 C   0  0  0  0  0  0
    7.2520  -29.8750   -1.4410 C   0  0  0  0  0  0
    8.3911  -30.5302   -1.7687 N   0  0  0  0  0  0
    9.1954  -29.5531   -2.2412 C   0  0  0  0  0  0
   10.6188  -33.4843   -2.8476 C   0  0  0  0  0  0
    9.5191  -34.5069   -3.1332 C   0  0  0  0  0  0
    8.9930  -34.3041   -4.4902 N   0  0  0  0  0  0
    8.9698  -35.4011   -5.4269 C   0  0  0  0  0  0
    9.8658  -36.2883   -5.3657 O   0  0  0  0  0  0
    7.8542  -35.5499   -6.4437 C   0  0  0  0  0  0
    7.9081  -36.9099   -7.1454 C   0  0  0  0  0  0
    6.8705  -37.8036   -6.4644 C   0  0  0  0  0  0
    6.1178  -36.9384   -5.4580 C   0  0  0  0  0  0
    6.4864  -35.4972   -5.7696 C   0  0  0  0  0  0
    8.8944  -24.3943   -5.1285 H   0  0  0  0  0  0
  1  2  1  0  0  0
  1  3  1  0  0  0
  3  4  1  0  0  0
  4  5  1  0  0  0
  5  6  1  0  0  0
  6  7  2  0  0  0
  7  8  1  0  0  0
  7  9  1  0  0  0
  9 10  1  0  0  0
 10 11  2  0  0  0
 11 12  1  0  0  0
 11 13  1  0  0  0
 13 14  2  0  0  0
 14 15  1  0  0  0
 15 16  2  0  0  0
 16 17  1  0  0  0
 16 18  1  0  0  0
 18 19  2  0  0  0
  9 20  2  0  0  0
 20 21  1  0  0  0
 21 22  1  0  0  0
 22 23  2  0  0  0
 23 24  1  0  0  0
 24 25  2  0  0  0
  4 26  1  0  0  0
 26 27  1  0  0  0
 27 28  1  0  0  0
 28 29  1  0  0  0
 29 30  2  0  0  0
 29 31  1  0  0  0
 31 32  1  0  0  0
 32 33  1  0  0  0
 33 34  1  0  0  0
 34 35  1  0  0  0
 28  1  1  0  0  0
 35 31  1  0  0  0
 25  6  1  0  0  0
 19 13  1  0  0  0
 25 21  1  0  0  0
 12 36  1  0  0  0
M  END
>  <CHROM.0>
-147.66086179,-172.45105831,12.68253241,59.44189732,-63.08361025,-5.15951079

>  <CHROM.1>
69.40381905,-142.60348893,147.13138410,-175.80765589,12.31926325,-169.59090572
9.81872265,-29.76873693,-4.14572445,-2.09799319,0.90553935,0.47850540

>  <RI>
2.95534e+07

>  <Rbt.Current_Directory>
/extra/banzai2/j5wagner/CELPP/2016_10_17_rdock_implementation/normal_run/tutorialVideo/tutorial_rdock_implementation/full_week_run/4-docking/5m96/hiResHolo_5aph_docking

>  <Rbt.Executable>
rbdock ($Id: //depot/dev/client3/rdock/2013.1/src/exe/rbdock.cxx#4 $)

>  <Rbt.Library>
libRbt.so (2013.1, Build901 2013/11/27)

>  <Rbt.Parameter_File>
/home/j5wagner/env_00/source/rDock/rDock_2013.1_src//data/scripts/dock.prm

>  <Rbt.Receptor>
/extra/banzai2/j5wagner/CELPP/2016_10_17_rdock_implementation/normal_run/tutorialVideo/tutorial_rdock_implementation/full_week_run/4-docking/5m96/hiResHolo_5aph_tech_prep/rDockGridGenInput.prm

>  <SCORE>
-24.0555

>  <SCORE.INTER>
-14.202

>  <SCORE.INTER.CONST>
1

>  <SCORE.INTER.POLAR>
0

>  <SCORE.INTER.REPUL>
0

>  <SCORE.INTER.ROT>
5

>  <SCORE.INTER.VDW>
-24.602

>  <SCORE.INTER.norm>
-0.405773

>  <SCORE.INTRA>
-0.491412

>  <SCORE.INTRA.DIHEDRAL>
-5.33056

>  <SCORE.INTRA.DIHEDRAL.0>
9.74364

>  <SCORE.INTRA.POLAR>
0

>  <SCORE.INTRA.POLAR.0>
0

>  <SCORE.INTRA.REPUL>
0.2739

>  <SCORE.INTRA.REPUL.0>
0.108387

>  <SCORE.INTRA.VDW>
0.80437

>  <SCORE.INTRA.VDW.0>
-2.87247

>  <SCORE.INTRA.norm>
-0.0140403

>  <SCORE.RESTR>
0.000724614

>  <SCORE.RESTR.CAVITY>
0.000724614

>  <SCORE.RESTR.norm>
2.07033e-05

>  <SCORE.SYSTEM>
-9.36274

>  <SCORE.SYSTEM.CONST>
0

>  <SCORE.SYSTEM.DIHEDRAL>
1.68366

>  <SCORE.SYSTEM.POLAR>
-2.81043

>  <SCORE.SYSTEM.REPUL>
0.00570943

>  <SCORE.SYSTEM.VDW>
-0.677653

>  <SCORE.SYSTEM.norm>
-0.267507

>  <SCORE.heavy>
35

>  <SCORE.norm>
-0.687299

$$$$

  rDOCK(R)          3D
libRbt.so/2013.1/901 2013/11/27
 36 40  0  0  0  0  0  0  0  0999 V2000
    9.9534  -31.6417   -4.6097 C   0  0  0  0  0  0
    9.0834  -30.4075   -4.8788 C   0  0  0  0  0  0
   11.4510  -31.2867   -4.6266 C   0  0  0  0  0  0
   11.8116  -30.4779   -3.4427 N   0  0  0  0  0  0
   13.2276  -30.0646   -3.5250 C   0  0  0  0  0  0
   13.4265  -28.6968   -2.8990 C   0  0  0  0  0  0
   12.7671  -27.5171   -3.3583 C   0  0  0  0  0  0
   11.8400  -27.5756   -4.5508 C   0  0  0  0  0  0
   12.9604  -26.2859   -2.6656 C   0  0  0  0  0  0
   12.2893  -25.0944   -3.1124 N   0  0  0  0  0  0
   11.0579  -24.7588   -2.8561 C   0  0  0  0  0  0
   10.2267  -25.6287   -2.1449 O   0  0  0  0  0  0
   10.5367  -23.4706   -3.3761 C   0  0  0  0  0  0
   11.3156  -22.6388   -4.1950 C   0  0  0  0  0  0
   10.8136  -21.4599   -4.6449 N   0  0  0  0  0  0
    9.5526  -21.0654   -4.3265 C   0  0  0  0  0  0
    9.0423  -19.7435   -4.7941 C   0  0  0  0  0  0
    8.7773  -21.8528   -3.5373 N   0  0  0  0  0  0
    9.2370  -23.0390   -3.0632 C   0  0  0  0  0  0
   13.8694  -26.2375   -1.5909 C   0  0  0  0  0  0
   14.4880  -27.3796   -1.2145 N   0  0  0  0  0  0
   15.3752  -27.5866   -0.2323 C   0  0  0  0  0  0
   15.7005  -28.9303   -0.2550 C   0  0  0  0  0  0
   15.0212  -29.5555   -1.2458 N   0  0  0  0  0  0
   14.2931  -28.5652   -1.8062 C   0  0  0  0  0  0
   11.5588  -31.2506   -2.2079 C   0  0  0  0  0  0
   10.0683  -31.5686   -2.0889 C   0  0  0  0  0  0
    9.6052  -32.2413   -3.3104 N   0  0  0  0  0  0
    8.9349  -33.5158   -3.2228 C   0  0  0  0  0  0
    9.2438  -34.3171   -2.2975 O   0  0  0  0  0  0
    7.8182  -33.8898   -4.1788 C   0  0  0  0  0  0
    8.3496  -34.1589   -5.5895 C   0  0  0  0  0  0
    8.4543  -35.6770   -5.7436 C   0  0  0  0  0  0
    7.8645  -36.3023   -4.4831 C   0  0  0  0  0  0
    7.1389  -35.1866   -3.7489 C   0  0  0  0  0  0
    9.2808  -25.3858   -1.8818 H   0  0  0  0  0  0
  1  2  1  0  0  0
  1  3  1  0  0  0
  3  4  1  0  0  0
  4  5  1  0  0  0
  5  6  1  0  0  0
  6  7  2  0  0  0
  7  8  1  0  0  0
  7  9  1  0  0  0
  9 10  1  0  0  0
 10 11  2  0  0  0
 11 12  1  0  0  0
 11 13  1  0  0  0
 13 14  2  0  0  0
 14 15  1  0  0  0
 15 16  2  0  0  0
 16 17  1  0  0  0
 16 18  1  0  0  0
 18 19  2  0  0  0
  9 20  2  0  0  0
 20 21  1  0  0  0
 21 22  1  0  0  0
 22 23  2  0  0  0
 23 24  1  0  0  0
 24 25  2  0  0  0
  4 26  1  0  0  0
 26 27  1  0  0  0
 27 28  1  0  0  0
 28 29  1  0  0  0
 29 30  2  0  0  0
 29 31  1  0  0  0
 31 32  1  0  0  0
 32 33  1  0  0  0
 33 34  1  0  0  0
 34 35  1  0  0  0
 28  1  1  0  0  0
 35 31  1  0  0  0
 25  6  1  0  0  0
 19 13  1  0  0  0
 25 21  1  0  0  0
 12 36  1  0  0  0
M  END
>  <CHROM.0>
-148.98337932,8.45828549,-168.43893403,-176.80558605,-63.77963147,10.28199217

>  <CHROM.1>
146.67974835,-60.04237910,81.13463247,176.60362029,3.37040913,71.30943261
11.00599068,-28.60748832,-3.26640421,1.76834072,0.47123587,3.10386920

>  <RI>
2.95534e+07

>  <Rbt.Current_Directory>
/extra/banzai2/j5wagner/CELPP/2016_10_17_rdock_implementation/normal_run/tutorialVideo/tutorial_rdock_implementation/full_week_run/4-docking/5m96/hiResHolo_5aph_docking

>  <Rbt.Executable>
rbdock ($Id: //depot/dev/client3/rdock/2013.1/src/exe/rbdock.cxx#4 $)

>  <Rbt.Library>
libRbt.so (2013.1, Build901 2013/11/27)

>  <Rbt.Parameter_File>
/home/j5wagner/env_00/source/rDock/rDock_2013.1_src//data/scripts/dock.prm

>  <Rbt.Receptor>
/extra/banzai2/j5wagner/CELPP/2016_10_17_rdock_implementation/normal_run/tutorialVideo/tutorial_rdock_implementation/full_week_run/4-docking/5m96/hiResHolo_5aph_tech_prep/rDockGridGenInput.prm

>  <SCORE>
-23.7659

>  <SCORE.INTER>
-19.8469

>  <SCORE.INTER.CONST>
1

>  <SCORE.INTER.POLAR>
-1.71495

>  <SCORE.INTER.REPUL>
0

>  <SCORE.INTER.ROT>
5

>  <SCORE.INTER.VDW>
-24.4161

>  <SCORE.INTER.norm>
-0.567056

>  <SCORE.INTRA>
-0.229454

>  <SCORE.INTRA.DIHEDRAL>
-0.538978

>  <SCORE.INTRA.DIHEDRAL.0>
9.74364

>  <SCORE.INTRA.POLAR>
0

>  <SCORE.INTRA.POLAR.0>
0

>  <SCORE.INTRA.REPUL>
-0.108387

>  <SCORE.INTRA.REPUL.0>
0.108387

>  <SCORE.INTRA.VDW>
0.581971

>  <SCORE.INTRA.VDW.0>
-2.87247

>  <SCORE.INTRA.norm>
-0.00655583

>  <SCORE.RESTR>
0.378458

>  <SCORE.RESTR.CAVITY>
0.378458

>  <SCORE.RESTR.norm>
0.0108131

>  <SCORE.SYSTEM>
-4.06795

>  <SCORE.SYSTEM.CONST>
0

>  <SCORE.SYSTEM.DIHEDRAL>
1.84728

>  <SCORE.SYSTEM.POLAR>
-1.32479

>  <SCORE.SYSTEM.VDW>
-0.487317

>  <SCORE.SYSTEM.norm>
-0.116227

>  <SCORE.heavy>
35

>  <SCORE.norm>
-0.679026

$$$$

  rDOCK(R)          3D
libRbt.so/2013.1/901 2013/11/27
 36 40  0  0  0  0  0  0  0  0999 V2000
   10.1927  -32.9155   -3.3532 C   0  0  0  0  0  0
   11.6905  -32.9886   -3.0311 C   0  0  0  0  0  0
    9.5039  -31.7873   -2.5645 C   0  0  0  0  0  0
    9.9217  -30.4627   -3.0710 N   0  0  0  0  0  0
    9.3284  -29.3940   -2.2412 C   0  0  0  0  0  0
   10.1964  -28.1498   -2.2643 C   0  0  0  0  0  0
   11.4730  -28.0683   -1.6309 C   0  0  0  0  0  0
   12.0162  -29.2453   -0.8533 C   0  0  0  0  0  0
   12.2514  -26.8810   -1.7629 C   0  0  0  0  0  0
   13.5452  -26.7944   -1.1400 N   0  0  0  0  0  0
   14.4961  -25.9596   -1.4463 C   0  0  0  0  0  0
   14.3406  -25.0832   -2.5237 O   0  0  0  0  0  0
   15.7624  -25.9915   -0.6737 C   0  0  0  0  0  0
   17.0112  -26.0561   -1.3106 C   0  0  0  0  0  0
   18.1517  -26.0963   -0.5745 N   0  0  0  0  0  0
   18.1135  -26.0633    0.7837 C   0  0  0  0  0  0
   19.3784  -26.1572    1.5697 C   0  0  0  0  0  0
   16.9182  -25.9989    1.4247 N   0  0  0  0  0  0
   15.7520  -25.9580    0.7306 C   0  0  0  0  0  0
   11.7073  -25.7749   -2.4442 C   0  0  0  0  0  0
   10.4816  -25.8973   -3.0022 N   0  0  0  0  0  0
    9.7660  -25.0027   -3.6965 C   0  0  0  0  0  0
    8.5806  -25.6187   -4.0529 C   0  0  0  0  0  0
    8.5578  -26.8884   -3.5824 N   0  0  0  0  0  0
    9.7422  -27.0127   -2.9448 C   0  0  0  0  0  0
    9.5215  -30.3147   -4.4865 C   0  0  0  0  0  0
   10.2367  -31.3607   -5.3416 C   0  0  0  0  0  0
    9.9881  -32.7023   -4.7959 N   0  0  0  0  0  0
    9.4429  -33.7360   -5.6417 C   0  0  0  0  0  0
    8.6529  -33.4218   -6.5749 O   0  0  0  0  0  0
    9.8491  -35.1883   -5.4781 C   0  0  0  0  0  0
    9.1832  -35.8260   -4.2555 C   0  0  0  0  0  0
    7.9876  -36.6300   -4.7685 C   0  0  0  0  0  0
    8.0256  -36.5760   -6.2928 C   0  0  0  0  0  0
    9.3907  -36.0240   -6.6695 C   0  0  0  0  0  0
   15.0315  -24.3840   -2.7619 H   0  0  0  0  0  0
  1  2  1  0  0  0
  1  3  1  0  0  0
  3  4  1  0  0  0
  4  5  1  0  0  0
  5  6  1  0  0  0
  6  7  2  0  0  0
  7  8  1  0  0  0
  7  9  1  0  0  0
  9 10  1  0  0  0
 10 11  2  0  0  0
 11 12  1  0  0  0
 11 13  1  0  0  0
 13 14  2  0  0  0
 14 15  1  0  0  0
 15 16  2  0  0  0
 16 17  1  0  0  0
 16 18  1  0  0  0
 18 19  2  0  0  0
  9 20  2  0  0  0
 20 21  1  0  0  0
 21 22  1  0  0  0
 22 23  2  0  0  0
 23 24  1  0  0  0
 24 25  2  0  0  0
  4 26  1  0  0  0
 26 27  1  0  0  0
 27 28  1  0  0  0
 28 29  1  0  0  0
 29 30  2  0  0  0
 29 31  1  0  0  0
 31 32  1  0  0  0
 32 33  1  0  0  0
 33 34  1  0  0  0
 34 35  1  0  0  0
 28  1  1  0  0  0
 35 31  1  0  0  0
 25  6  1  0  0  0
 19 13  1  0  0  0
 25 21  1  0  0  0
 12 36  1  0  0  0
M  END
>  <CHROM.0>
-149.38564662,174.19952622,-179.18098843,60.27895257,62.14239753,6.84671655

>  <CHROM.1>
152.64100083,-70.17367941,160.63436260,176.39134527,129.38413876,75.57360215
11.73551031,-29.43648181,-2.82946382,-2.25858667,-0.44269870,0.17541467

>  <RI>
2.95534e+07

>  <Rbt.Current_Directory>
/extra/banzai2/j5wagner/CELPP/2016_10_17_rdock_implementation/normal_run/tutorialVideo/tutorial_rdock_implementation/full_week_run/4-docking/5m96/hiResHolo_5aph_docking

>  <Rbt.Executable>
rbdock ($Id: //depot/dev/client3/rdock/2013.1/src/exe/rbdock.cxx#4 $)

>  <Rbt.Library>
libRbt.so (2013.1, Build901 2013/11/27)

>  <Rbt.Parameter_File>
/home/j5wagner/env_00/source/rDock/rDock_2013.1_src//data/scripts/dock.prm

>  <Rbt.Receptor>
/extra/banzai2/j5wagner/CELPP/2016_10_17_rdock_implementation/normal_run/tutorialVideo/tutorial_rdock_implementation/full_week_run/4-docking/5m96/hiResHolo_5aph_tech_prep/rDockGridGenInput.prm

>  <SCORE>
-23.5263

>  <SCORE.INTER>
-18.5883

>  <SCORE.INTER.CONST>
1

>  <SCORE.INTER.POLAR>
-0.812274

>  <SCORE.INTER.REPUL>
0.00554785

>  <SCORE.INTER.ROT>
5

>  <SCORE.INTER.VDW>
-26.2543

>  <SCORE.INTER.norm>
-0.531095

>  <SCORE.INTRA>
0.980322

>  <SCORE.INTRA.DIHEDRAL>
1.22847

>  <SCORE.INTRA.DIHEDRAL.0>
9.74364

>  <SCORE.INTRA.POLAR>
0

>  <SCORE.INTRA.POLAR.0>
0

>  <SCORE.INTRA.REPUL>
-0.108387

>  <SCORE.INTRA.REPUL.0>
0.108387

>  <SCORE.INTRA.VDW>
0.908024

>  <SCORE.INTRA.VDW.0>
-2.87247

>  <SCORE.INTRA.norm>
0.0280092

>  <SCORE.RESTR>
0

>  <SCORE.RESTR.CAVITY>
0

>  <SCORE.RESTR.norm>
0

>  <SCORE.SYSTEM>
-5.9183

>  <SCORE.SYSTEM.CONST>
0

>  <SCORE.SYSTEM.DIHEDRAL>
1.4084

>  <SCORE.SYSTEM.POLAR>
-1.85499

>  <SCORE.SYSTEM.VDW>
-0.315524

>  <SCORE.SYSTEM.norm>
-0.169094

>  <SCORE.heavy>
35

>  <SCORE.norm>
-0.67218

$$$$

  rDOCK(R)          3D
libRbt.so/2013.1/901 2013/11/27
 36 40  0  0  0  0  0  0  0  0999 V2000
   12.3384  -28.2385   -2.0610 C   0  0  0  0  0  0
   12.8324  -29.6715   -1.8269 C   0  0  0  0  0  0
   10.8640  -28.2187   -2.5025 C   0  0  0  0  0  0
    9.9761  -28.5972   -1.3825 N   0  0  0  0  0  0
    8.5761  -28.6678   -1.8490 C   0  0  0  0  0  0
    8.1391  -30.1102   -2.0242 C   0  0  0  0  0  0
    8.1894  -30.8023   -3.2716 C   0  0  0  0  0  0
    8.6613  -30.0927   -4.5201 C   0  0  0  0  0  0
    7.8237  -32.1792   -3.3296 C   0  0  0  0  0  0
    7.8844  -32.8891   -4.5794 N   0  0  0  0  0  0
    7.3925  -34.0697   -4.8222 C   0  0  0  0  0  0
    6.7990  -34.8078   -3.7945 O   0  0  0  0  0  0
    7.5214  -34.6398   -6.1860 C   0  0  0  0  0  0
    6.5589  -35.5154   -6.7112 C   0  0  0  0  0  0
    6.7122  -36.0298   -7.9587 N   0  0  0  0  0  0
    7.7849  -35.7035   -8.7268 C   0  0  0  0  0  0
    7.9542  -36.3200  -10.0751 C   0  0  0  0  0  0
    8.7298  -34.8568   -8.2431 N   0  0  0  0  0  0
    8.6194  -34.3190   -7.0013 C   0  0  0  0  0  0
    7.3344  -32.8096   -2.1690 C   0  0  0  0  0  0
    7.2821  -32.0991   -1.0197 N   0  0  0  0  0  0
    6.8684  -32.4740    0.1981 C   0  0  0  0  0  0
    7.0193  -31.3820    1.0327 C   0  0  0  0  0  0
    7.5226  -30.3336    0.3387 N   0  0  0  0  0  0
    7.6656  -30.8202   -0.9134 C   0  0  0  0  0  0
   10.1153  -27.6248   -0.2777 C   0  0  0  0  0  0
   11.5450  -27.6523    0.2628 C   0  0  0  0  0  0
   12.4955  -27.4353   -0.8366 N   0  0  0  0  0  0
   13.4721  -26.3772   -0.7484 C   0  0  0  0  0  0
   13.1874  -25.3209   -0.1182 O   0  0  0  0  0  0
   14.8605  -26.5304   -1.3396 C   0  0  0  0  0  0
   15.6395  -25.2127   -1.2992 C   0  0  0  0  0  0
   16.5762  -25.2862   -0.0923 C   0  0  0  0  0  0
   16.4474  -26.6877    0.4966 C   0  0  0  0  0  0
   15.6957  -27.5184   -0.5307 C   0  0  0  0  0  0
    6.4240  -35.7364   -3.9365 H   0  0  0  0  0  0
  1  2  1  0  0  0
  1  3  1  0  0  0
  3  4  1  0  0  0
  4  5  1  0  0  0
  5  6  1  0  0  0
  6  7  2  0  0  0
  7  8  1  0  0  0
  7  9  1  0  0  0
  9 10  1  0  0  0
 10 11  2  0  0  0
 11 12  1  0  0  0
 11 13  1  0  0  0
 13 14  2  0  0  0
 14 15  1  0  0  0
 15 16  2  0  0  0
 16 17  1  0  0  0
 16 18  1  0  0  0
 18 19  2  0  0  0
  9 20  2  0  0  0
 20 21  1  0  0  0
 21 22  1  0  0  0
 22 23  2  0  0  0
 23 24  1  0  0  0
 24 25  2  0  0  0
  4 26  1  0  0  0
 26 27  1  0  0  0
 27 28  1  0  0  0
 28 29  1  0  0  0
 29 30  2  0  0  0
 29 31  1  0  0  0
 31 32  1  0  0  0
 32 33  1  0  0  0
 33 34  1  0  0  0
 34 35  1  0  0  0
 28  1  1  0  0  0
 35 31  1  0  0  0
 25  6  1  0  0  0
 19 13  1  0  0  0
 25 21  1  0  0  0
 12 36  1  0  0  0
M  END
>  <CHROM.0>
-148.34631099,-164.72264009,15.86192030,-55.18743087,179.99813199,9.60248007

>  <CHROM.1>
103.65787381,-95.14568778,-168.65498528,-178.58188453,-149.30765848,171.77848510
9.97007436,-30.56687402,-2.77972403,-0.88883011,-0.51369601,-2.13301639

>  <RI>
2.95534e+07

>  <Rbt.Current_Directory>
/extra/banzai2/j5wagner/CELPP/2016_10_17_rdock_implementation/normal_run/tutorialVideo/tutorial_rdock_implementation/full_week_run/4-docking/5m96/hiResHolo_5aph_docking

>  <Rbt.Executable>
rbdock ($Id: //depot/dev/client3/rdock/2013.1/src/exe/rbdock.cxx#4 $)

>  <Rbt.Library>
libRbt.so (2013.1, Build901 2013/11/27)

>  <Rbt.Parameter_File>
/home/j5wagner/env_00/source/rDock/rDock_2013.1_src//data/scripts/dock.prm

>  <Rbt.Receptor>
/extra/banzai2/j5wagner/CELPP/2016_10_17_rdock_implementation/normal_run/tutorialVideo/tutorial_rdock_implementation/full_week_run/4-docking/5m96/hiResHolo_5aph_tech_prep/rDockGridGenInput.prm

>  <SCORE>
-23.5251

>  <SCORE.INTER>
-16.4419

>  <SCORE.INTER.CONST>
1

>  <SCORE.INTER.POLAR>
0

>  <SCORE.INTER.REPUL>
0

>  <SCORE.INTER.ROT>
5

>  <SCORE.INTER.VDW>
-26.8419

>  <SCORE.INTER.norm>
-0.469768

>  <SCORE.INTRA>
-0.456393

>  <SCORE.INTRA.DIHEDRAL>
-2.34616

>  <SCORE.INTRA.DIHEDRAL.0>
9.74364

>  <SCORE.INTRA.POLAR>
0

>  <SCORE.INTRA.POLAR.0>
0

>  <SCORE.INTRA.REPUL>
-0.108387

>  <SCORE.INTRA.REPUL.0>
0.108387

>  <SCORE.INTRA.VDW>
1.25863

>  <SCORE.INTRA.VDW.0>
-2.87247

>  <SCORE.INTRA.norm>
-0.0130398

>  <SCORE.RESTR>
0

>  <SCORE.RESTR.CAVITY>
0

>  <SCORE.RESTR.norm>
0

>  <SCORE.SYSTEM>
-6.62682

>  <SCORE.SYSTEM.CONST>
0

>  <SCORE.SYSTEM.DIHEDRAL>
2.2441

>  <SCORE.SYSTEM.POLAR>
-2.18169

>  <SCORE.SYSTEM.VDW>
-0.331133

>  <SCORE.SYSTEM.norm>
-0.189338

>  <SCORE.heavy>
35

>  <SCORE.norm>
-0.672145

$$$$

  rDOCK(R)          3D
libRbt.so/2013.1/901 2013/11/27
 36 40  0  0  0  0  0  0  0  0999 V2000
   10.0984  -33.1582   -2.8961 C   0  0  0  0  0  0
   11.4671  -33.8062   -2.6527 C   0  0  0  0  0  0
    9.8674  -31.9642   -1.9526 C   0  0  0  0  0  0
   10.7383  -30.8280   -2.3217 N   0  0  0  0  0  0
   10.5746  -29.7285   -1.3485 C   0  0  0  0  0  0
   11.3887  -28.5171   -1.7628 C   0  0  0  0  0  0
   10.8122  -27.3274   -2.3012 C   0  0  0  0  0  0
    9.3198  -27.2348   -2.5230 C   0  0  0  0  0  0
   11.6475  -26.2108   -2.5985 C   0  0  0  0  0  0
   11.0741  -25.0025   -3.1283 N   0  0  0  0  0  0
   10.6280  -24.8246   -4.3383 C   0  0  0  0  0  0
   10.7544  -25.8407   -5.2895 O   0  0  0  0  0  0
   10.0377  -23.5138   -4.7056 C   0  0  0  0  0  0
    9.5595  -22.6237   -3.7319 C   0  0  0  0  0  0
    9.0136  -21.4364   -4.1015 N   0  0  0  0  0  0
    8.9282  -21.0787   -5.4098 C   0  0  0  0  0  0
    8.2804  -19.7899   -5.7919 C   0  0  0  0  0  0
    9.3854  -21.9210   -6.3718 N   0  0  0  0  0  0
    9.9379  -23.1187   -6.0499 C   0  0  0  0  0  0
   13.0414  -26.3333   -2.4374 C   0  0  0  0  0  0
   13.5371  -27.4928   -1.9493 N   0  0  0  0  0  0
   14.8067  -27.8427   -1.7037 C   0  0  0  0  0  0
   14.7839  -29.1321   -1.2053 C   0  0  0  0  0  0
   13.5083  -29.5826   -1.1421 N   0  0  0  0  0  0
   12.7809  -28.5447   -1.6093 C   0  0  0  0  0  0
   10.4189  -30.3718   -3.6912 C   0  0  0  0  0  0
   10.7043  -31.4911   -4.6924 C   0  0  0  0  0  0
    9.9849  -32.7089   -4.2940 N   0  0  0  0  0  0
    9.1008  -33.3632   -5.2276 C   0  0  0  0  0  0
    8.4789  -32.6723   -6.0818 O   0  0  0  0  0  0
    8.9509  -34.8724   -5.2506 C   0  0  0  0  0  0
    7.5249  -35.2921   -5.6182 C   0  0  0  0  0  0
    7.5395  -35.6672   -7.1009 C   0  0  0  0  0  0
    8.9890  -35.5971   -7.5718 C   0  0  0  0  0  0
    9.8437  -35.4965   -6.3190 C   0  0  0  0  0  0
   10.4611  -25.7273   -6.2507 H   0  0  0  0  0  0
  1  2  1  0  0  0
  1  3  1  0  0  0
  3  4  1  0  0  0
  4  5  1  0  0  0
  5  6  1  0  0  0
  6  7  2  0  0  0
  7  8  1  0  0  0
  7  9  1  0  0  0
  9 10  1  0  0  0
 10 11  2  0  0  0
 11 12  1  0  0  0
 11 13  1  0  0  0
 13 14  2  0  0  0
 14 15  1  0  0  0
 15 16  2  0  0  0
 16 17  1  0  0  0
 16 18  1  0  0  0
 18 19  2  0  0  0
  9 20  2  0  0  0
 20 21  1  0  0  0
 21 22  1  0  0  0
 22 23  2  0  0  0
 23 24  1  0  0  0
 24 25  2  0  0  0
  4 26  1  0  0  0
 26 27  1  0  0  0
 27 28  1  0  0  0
 28 29  1  0  0  0
 29 30  2  0  0  0
 29 31  1  0  0  0
 31 32  1  0  0  0
 32 33  1  0  0  0
 33 34  1  0  0  0
 34 35  1  0  0  0
 28  1  1  0  0  0
 35 31  1  0  0  0
 25  6  1  0  0  0
 19 13  1  0  0  0
 25 21  1  0  0  0
 12 36  1  0  0  0
M  END
>  <CHROM.0>
-148.12983942,177.50946685,-173.78415990,-177.50729960,64.69476901,-9.50693918

>  <CHROM.1>
-176.12756782,106.44762778,-73.53865786,-177.03899273,-20.45325299,146.07638329
10.46560484,-28.76113554,-3.90148850,-1.65415792,-0.80623431,-0.00912595

>  <RI>
2.95534e+07

>  <Rbt.Current_Directory>
/extra/banzai2/j5wagner/CELPP/2016_10_17_rdock_implementation/normal_run/tutorialVideo/tutorial_rdock_implementation/full_week_run/4-docking/5m96/hiResHolo_5aph_docking

>  <Rbt.Executable>
rbdock ($Id: //depot/dev/client3/rdock/2013.1/src/exe/rbdock.cxx#4 $)

>  <Rbt.Library>
libRbt.so (2013.1, Build901 2013/11/27)

>  <Rbt.Parameter_File>
/home/j5wagner/env_00/source/rDock/rDock_2013.1_src//data/scripts/dock.prm

>  <Rbt.Receptor>
/extra/banzai2/j5wagner/CELPP/2016_10_17_rdock_implementation/normal_run/tutorialVideo/tutorial_rdock_implementation/full_week_run/4-docking/5m96/hiResHolo_5aph_tech_prep/rDockGridGenInput.prm

>  <SCORE>
-23.3091

>  <SCORE.INTER>
-20.9437

>  <SCORE.INTER.CONST>
1

>  <SCORE.INTER.POLAR>
-1.53016

>  <SCORE.INTER.REPUL>
0

>  <SCORE.INTER.ROT>
5

>  <SCORE.INTER.VDW>
-26.1411

>  <SCORE.INTER.norm>
-0.59839

>  <SCORE.INTRA>
0.645821

>  <SCORE.INTRA.DIHEDRAL>
1.22487

>  <SCORE.INTRA.DIHEDRAL.0>
9.74364

>  <SCORE.INTRA.POLAR>
0

>  <SCORE.INTRA.POLAR.0>
0

>  <SCORE.INTRA.REPUL>
-0.104017

>  <SCORE.INTRA.REPUL.0>
0.108387

>  <SCORE.INTRA.VDW>
0.55347

>  <SCORE.INTRA.VDW.0>
-2.87247

>  <SCORE.INTRA.norm>
0.018452

>  <SCORE.RESTR>
1.04163

>  <SCORE.RESTR.CAVITY>
1.04163

>  <SCORE.RESTR.norm>
0.0297607

>  <SCORE.SYSTEM>
-4.05286

>  <SCORE.SYSTEM.CONST>
0

>  <SCORE.SYSTEM.DIHEDRAL>
1.58086

>  <SCORE.SYSTEM.POLAR>
-1.33205

>  <SCORE.SYSTEM.REPUL>
0.000560152

>  <SCORE.SYSTEM.VDW>
-0.317118

>  <SCORE.SYSTEM.norm>
-0.115796

>  <SCORE.heavy>
35

>  <SCORE.norm>
-0.665973

$$$$

  rDOCK(R)          3D
libRbt.so/2013.1/901 2013/11/27
 36 40  0  0  0  0  0  0  0  0999 V2000
    9.3367  -32.2068   -3.9382 C   0  0  0  0  0  0
    9.9257  -31.5643   -5.2002 C   0  0  0  0  0  0
    9.2869  -31.2056   -2.7702 C   0  0  0  0  0  0
    8.2606  -30.1690   -3.0114 N   0  0  0  0  0  0
    8.2938  -29.1634   -1.9296 C   0  0  0  0  0  0
    9.4613  -28.2121   -2.1144 C   0  0  0  0  0  0
    9.7169  -27.5055   -3.3280 C   0  0  0  0  0  0
    8.8269  -27.7099   -4.5326 C   0  0  0  0  0  0
   10.7981  -26.5780   -3.3900 C   0  0  0  0  0  0
   11.0552  -25.8508   -4.6042 N   0  0  0  0  0  0
   10.3219  -24.8986   -5.1048 C   0  0  0  0  0  0
    9.1147  -24.5478   -4.4944 O   0  0  0  0  0  0
   10.7573  -24.2340   -6.3579 C   0  0  0  0  0  0
   10.0851  -23.1126   -6.8676 C   0  0  0  0  0  0
   10.5013  -22.5344   -8.0238 N   0  0  0  0  0  0
   11.5756  -23.0152   -8.7034 C   0  0  0  0  0  0
   11.9829  -22.3911   -9.9962 C   0  0  0  0  0  0
   12.2449  -24.0980   -8.2307 N   0  0  0  0  0  0
   11.8646  -24.7096   -7.0798 C   0  0  0  0  0  0
   11.6501  -26.4407   -2.2768 C   0  0  0  0  0  0
   11.3778  -27.1549   -1.1613 N   0  0  0  0  0  0
   12.0265  -27.1893    0.0102 C   0  0  0  0  0  0
   11.3453  -28.0734    0.8263 C   0  0  0  0  0  0
   10.2799  -28.5870    0.1665 N   0  0  0  0  0  0
   10.3420  -27.9961   -1.0467 C   0  0  0  0  0  0
    6.9247  -30.7949   -3.1087 C   0  0  0  0  0  0
    6.8816  -31.7464   -4.3043 C   0  0  0  0  0  0
    7.9813  -32.7163   -4.2068 N   0  0  0  0  0  0
    7.7024  -34.1309   -4.2541 C   0  0  0  0  0  0
    6.6113  -34.5642   -3.7900 O   0  0  0  0  0  0
    8.6625  -35.1051   -4.9098 C   0  0  0  0  0  0
    8.0585  -36.5083   -5.0146 C   0  0  0  0  0  0
    7.5440  -36.6657   -6.4463 C   0  0  0  0  0  0
    7.9598  -35.4165   -7.2172 C   0  0  0  0  0  0
    8.9708  -34.6899   -6.3453 C   0  0  0  0  0  0
    8.7791  -24.9961   -3.6522 H   0  0  0  0  0  0
  1  2  1  0  0  0
  1  3  1  0  0  0
  3  4  1  0  0  0
  4  5  1  0  0  0
  5  6  1  0  0  0
  6  7  2  0  0  0
  7  8  1  0  0  0
  7  9  1  0  0  0
  9 10  1  0  0  0
 10 11  2  0  0  0
 11 12  1  0  0  0
 11 13  1  0  0  0
 13 14  2  0  0  0
 14 15  1  0  0  0
 15 16  2  0  0  0
 16 17  1  0  0  0
 16 18  1  0  0  0
 18 19  2  0  0  0
  9 20  2  0  0  0
 20 21  1  0  0  0
 21 22  1  0  0  0
 22 23  2  0  0  0
 23 24  1  0  0  0
 24 25  2  0  0  0
  4 26  1  0  0  0
 26 27  1  0  0  0
 27 28  1  0  0  0
 28 29  1  0  0  0
 29 30  2  0  0  0
 29 31  1  0  0  0
 31 32  1  0  0  0
 32 33  1  0  0  0
 33 34  1  0  0  0
 34 35  1  0  0  0
 28  1  1  0  0  0
 35 31  1  0  0  0
 25  6  1  0  0  0
 19 13  1  0  0  0
 25 21  1  0  0  0
 12 36  1  0  0  0
M  END
>  <CHROM.0>
14.77055709,10.75200780,11.92371845,59.88031874,62.13284217,3.83670135

>  <CHROM.1>
77.09878935,52.25248897,70.53217933,1.10068371,-173.25358793,-171.71985513
9.60584747,-28.96015512,-4.39123847,-2.82869478,-1.26276234,-1.39610746

>  <RI>
2.95534e+07

>  <Rbt.Current_Directory>
/extra/banzai2/j5wagner/CELPP/2016_10_17_rdock_implementation/normal_run/tutorialVideo/tutorial_rdock_implementation/full_week_run/4-docking/5m96/hiResHolo_5aph_docking

>  <Rbt.Executable>
rbdock ($Id: //depot/dev/client3/rdock/2013.1/src/exe/rbdock.cxx#4 $)

>  <Rbt.Library>
libRbt.so (2013.1, Build901 2013/11/27)

>  <Rbt.Parameter_File>
/home/j5wagner/env_00/source/rDock/rDock_2013.1_src//data/scripts/dock.prm

>  <Rbt.Receptor>
/extra/banzai2/j5wagner/CELPP/2016_10_17_rdock_implementation/normal_run/tutorialVideo/tutorial_rdock_implementation/full_week_run/4-docking/5m96/hiResHolo_5aph_tech_prep/rDockGridGenInput.prm

>  <SCORE>
-23.1756

>  <SCORE.INTER>
-14.7887

>  <SCORE.INTER.CONST>
1

>  <SCORE.INTER.POLAR>
-0.810138

>  <SCORE.INTER.REPUL>
0

>  <SCORE.INTER.ROT>
5

>  <SCORE.INTER.VDW>
-22.4343

>  <SCORE.INTER.norm>
-0.422535

>  <SCORE.INTRA>
-0.89954

>  <SCORE.INTRA.DIHEDRAL>
-2.08396

>  <SCORE.INTRA.DIHEDRAL.0>
9.74364

>  <SCORE.INTRA.POLAR>
0

>  <SCORE.INTRA.POLAR.0>
0

>  <SCORE.INTRA.REPUL>
-0.108387

>  <SCORE.INTRA.REPUL.0>
0.108387

>  <SCORE.INTRA.VDW>
0.684377

>  <SCORE.INTRA.VDW.0>
-2.87247

>  <SCORE.INTRA.norm>
-0.0257011

>  <SCORE.RESTR>
0.0270132

>  <SCORE.RESTR.CAVITY>
0.0270132

>  <SCORE.RESTR.norm>
0.000771806

>  <SCORE.SYSTEM>
-7.51434

>  <SCORE.SYSTEM.CONST>
0

>  <SCORE.SYSTEM.DIHEDRAL>
0.707567

>  <SCORE.SYSTEM.POLAR>
-2.26015

>  <SCORE.SYSTEM.VDW>
-0.183627

>  <SCORE.SYSTEM.norm>
-0.214695

>  <SCORE.heavy>
35

>  <SCORE.norm>
-0.66216

$$$$

  rDOCK(R)          3D
libRbt.so/2013.1/901 2013/11/27
 36 40  0  0  0  0  0  0  0  0999 V2000
   10.2972  -25.2582   -4.4564 C   0  0  0  0  0  0
   11.6474  -25.5971   -5.1003 C   0  0  0  0  0  0
   10.0615  -26.0850   -3.1796 C   0  0  0  0  0  0
   10.9616  -25.6413   -2.0939 N   0  0  0  0  0  0
   10.7907  -26.5079   -0.9097 C   0  0  0  0  0  0
   11.5026  -27.8334   -1.1052 C   0  0  0  0  0  0
   10.8414  -29.0290   -1.5186 C   0  0  0  0  0  0
    9.3478  -29.0342   -1.7512 C   0  0  0  0  0  0
   11.6020  -30.2137   -1.7445 C   0  0  0  0  0  0
   10.9466  -31.4199   -2.1747 N   0  0  0  0  0  0
   11.2389  -32.1240   -3.2300 C   0  0  0  0  0  0
   12.2258  -31.6839   -4.1162 O   0  0  0  0  0  0
   10.4734  -33.3647   -3.5057 C   0  0  0  0  0  0
    9.4120  -33.7723   -2.6832 C   0  0  0  0  0  0
    8.7388  -34.9199   -2.9557 N   0  0  0  0  0  0
    9.0651  -35.6887   -4.0279 C   0  0  0  0  0  0
    8.3412  -36.9694   -4.2775 C   0  0  0  0  0  0
   10.0867  -35.3158   -4.8409 N   0  0  0  0  0  0
   10.7888  -34.1774   -4.6072 C   0  0  0  0  0  0
   12.9835  -30.2060   -1.4703 C   0  0  0  0  0  0
   13.5544  -29.0528   -1.0546 N   0  0  0  0  0  0
   14.8316  -28.7962   -0.7422 C   0  0  0  0  0  0
   14.9018  -27.4636   -0.3804 C   0  0  0  0  0  0
   13.6758  -26.8945   -0.4657 N   0  0  0  0  0  0
   12.8835  -27.9067   -0.8810 C   0  0  0  0  0  0
   10.6873  -24.2281   -1.7572 C   0  0  0  0  0  0
   10.9802  -23.3388   -2.9656 C   0  0  0  0  0  0
   10.2293  -23.8233   -4.1321 N   0  0  0  0  0  0
    9.3596  -22.9268   -4.8539 C   0  0  0  0  0  0
    8.7731  -21.9972   -4.2329 O   0  0  0  0  0  0
    9.1842  -23.0336   -6.3568 C   0  0  0  0  0  0
    8.4396  -21.8225   -6.9255 C   0  0  0  0  0  0
    9.4964  -20.8861   -7.5134 C   0  0  0  0  0  0
   10.8411  -21.5996   -7.4117 C   0  0  0  0  0  0
   10.5343  -23.0479   -7.0674 C   0  0  0  0  0  0
   12.7381  -30.8228   -3.9779 H   0  0  0  0  0  0
  1  2  1  0  0  0
  1  3  1  0  0  0
  3  4  1  0  0  0
  4  5  1  0  0  0
  5  6  1  0  0  0
  6  7  2  0  0  0
  7  8  1  0  0  0
  7  9  1  0  0  0
  9 10  1  0  0  0
 10 11  2  0  0  0
 11 12  1  0  0  0
 11 13  1  0  0  0
 13 14  2  0  0  0
 14 15  1  0  0  0
 15 16  2  0  0  0
 16 17  1  0  0  0
 16 18  1  0  0  0
 18 19  2  0  0  0
  9 20  2  0  0  0
 20 21  1  0  0  0
 21 22  1  0  0  0
 22 23  2  0  0  0
 23 24  1  0  0  0
 24 25  2  0  0  0
  4 26  1  0  0  0
 26 27  1  0  0  0
 27 28  1  0  0  0
 28 29  1  0  0  0
 29 30  2  0  0  0
 29 31  1  0  0  0
 31 32  1  0  0  0
 32 33  1  0  0  0
 33 34  1  0  0  0
 34 35  1  0  0  0
 28  1  1  0  0  0
 35 31  1  0  0  0
 25  6  1  0  0  0
 19 13  1  0  0  0
 25 21  1  0  0  0
 12 36  1  0  0  0
M  END
>  <CHROM.0>
12.27458819,-163.75974960,14.43670906,57.75320272,-63.52559523,0.47849432

>  <CHROM.1>
77.33756740,-98.63026116,125.06674539,-0.10024276,2.27411215,-168.90829284
10.82906932,-27.98277637,-3.36924748,1.61281149,-0.89934838,-0.14618678

>  <RI>
2.95534e+07

>  <Rbt.Current_Directory>
/extra/banzai2/j5wagner/CELPP/2016_10_17_rdock_implementation/normal_run/tutorialVideo/tutorial_rdock_implementation/full_week_run/4-docking/5m96/hiResHolo_5aph_docking

>  <Rbt.Executable>
rbdock ($Id: //depot/dev/client3/rdock/2013.1/src/exe/rbdock.cxx#4 $)

>  <Rbt.Library>
libRbt.so (2013.1, Build901 2013/11/27)

>  <Rbt.Parameter_File>
/home/j5wagner/env_00/source/rDock/rDock_2013.1_src//data/scripts/dock.prm

>  <Rbt.Receptor>
/extra/banzai2/j5wagner/CELPP/2016_10_17_rdock_implementation/normal_run/tutorialVideo/tutorial_rdock_implementation/full_week_run/4-docking/5m96/hiResHolo_5aph_tech_prep/rDockGridGenInput.prm

>  <SCORE>
-22.7274

>  <SCORE.INTER>
-13.7259

>  <SCORE.INTER.CONST>
1

>  <SCORE.INTER.POLAR>
-0.527039

>  <SCORE.INTER.REPUL>
0

>  <SCORE.INTER.ROT>
5

>  <SCORE.INTER.VDW>
-22.334

>  <SCORE.INTER.norm>
-0.392169

>  <SCORE.INTRA>
-1.42183

>  <SCORE.INTRA.DIHEDRAL>
-3.26294

>  <SCORE.INTRA.DIHEDRAL.0>
9.74364

>  <SCORE.INTRA.POLAR>
0

>  <SCORE.INTRA.POLAR.0>
0

>  <SCORE.INTRA.REPUL>
-0.108387

>  <SCORE.INTRA.REPUL.0>
0.108387

>  <SCORE.INTRA.VDW>
0.75157

>  <SCORE.INTRA.VDW.0>
-2.87247

>  <SCORE.INTRA.norm>
-0.0406238

>  <SCORE.RESTR>
0.0286136

>  <SCORE.RESTR.CAVITY>
0.0286136

>  <SCORE.RESTR.norm>
0.00081753

>  <SCORE.SYSTEM>
-7.60831

>  <SCORE.SYSTEM.CONST>
0

>  <SCORE.SYSTEM.DIHEDRAL>
0.929595

>  <SCORE.SYSTEM.POLAR>
-2.26024

>  <SCORE.SYSTEM.VDW>
-0.38828

>  <SCORE.SYSTEM.norm>
-0.21738

>  <SCORE.heavy>
35

>  <SCORE.norm>
-0.649355

$$$$

  rDOCK(R)          3D
libRbt.so/2013.1/901 2013/11/27
 36 40  0  0  0  0  0  0  0  0999 V2000
    7.9615  -31.8174   -4.0595 C   0  0  0  0  0  0
    7.0783  -30.9746   -3.1310 C   0  0  0  0  0  0
    8.9135  -30.9322   -4.8838 C   0  0  0  0  0  0
    9.9631  -30.3472   -4.0224 N   0  0  0  0  0  0
   10.8074  -29.4252   -4.8097 C   0  0  0  0  0  0
   11.1603  -28.1926   -3.9982 C   0  0  0  0  0  0
   12.4007  -28.0309   -3.3108 C   0  0  0  0  0  0
   13.4351  -29.1330   -3.3325 C   0  0  0  0  0  0
   12.6755  -26.8090   -2.6293 C   0  0  0  0  0  0
   13.9285  -26.6312   -1.9453 N   0  0  0  0  0  0
   14.1157  -26.6526   -0.6572 C   0  0  0  0  0  0
   13.0262  -26.7833    0.2083 O   0  0  0  0  0  0
   15.4894  -26.4806   -0.1235 C   0  0  0  0  0  0
   16.6160  -26.5452   -0.9576 C   0  0  0  0  0  0
   17.8610  -26.3956   -0.4362 N   0  0  0  0  0  0
   18.0448  -26.1701    0.8914 C   0  0  0  0  0  0
   19.4253  -26.0573    1.4465 C   0  0  0  0  0  0
   16.9713  -26.1012    1.7201 N   0  0  0  0  0  0
   15.7080  -26.2458    1.2441 C   0  0  0  0  0  0
   11.6795  -25.8148   -2.5729 C   0  0  0  0  0  0
   10.5116  -26.0312   -3.2192 N   0  0  0  0  0  0
    9.4310  -25.2454   -3.3167 C   0  0  0  0  0  0
    8.5058  -25.9207   -4.0912 C   0  0  0  0  0  0
    9.0067  -27.1198   -4.4723 N   0  0  0  0  0  0
   10.2363  -27.1431   -3.9133 C   0  0  0  0  0  0
   10.7781  -31.4230   -3.4190 C   0  0  0  0  0  0
    9.9035  -32.2960   -2.5192 C   0  0  0  0  0  0
    8.7462  -32.7888   -3.2788 N   0  0  0  0  0  0
    8.4747  -34.2042   -3.3436 C   0  0  0  0  0  0
    9.4355  -35.0225   -3.3099 O   0  0  0  0  0  0
    7.0550  -34.7366   -3.3846 C   0  0  0  0  0  0
    6.3250  -34.2992   -4.6577 C   0  0  0  0  0  0
    6.3748  -35.4808   -5.6276 C   0  0  0  0  0  0
    7.0121  -36.6508   -4.8842 C   0  0  0  0  0  0
    7.0414  -36.2620   -3.4151 C   0  0  0  0  0  0
   12.0808  -26.9235   -0.1226 H   0  0  0  0  0  0
  1  2  1  0  0  0
  1  3  1  0  0  0
  3  4  1  0  0  0
  4  5  1  0  0  0
  5  6  1  0  0  0
  6  7  2  0  0  0
  7  8  1  0  0  0
  7  9  1  0  0  0
  9 10  1  0  0  0
 10 11  2  0  0  0
 11 12  1  0  0  0
 11 13  1  0  0  0
 13 14  2  0  0  0
 14 15  1  0  0  0
 15 16  2  0  0  0
 16 17  1  0  0  0
 16 18  1  0  0  0
 18 19  2  0  0  0
  9 20  2  0  0  0
 20 21  1  0  0  0
 21 22  1  0  0  0
 22 23  2  0  0  0
 23 24  1  0  0  0
 24 25  2  0  0  0
  4 26  1  0  0  0
 26 27  1  0  0  0
 27 28  1  0  0  0
 28 29  1  0  0  0
 29 30  2  0  0  0
 29 31  1  0  0  0
 31 32  1  0  0  0
 32 33  1  0  0  0
 33 34  1  0  0  0
 34 35  1  0  0  0
 28  1  1  0  0  0
 35 31  1  0  0  0
 25  6  1  0  0  0
 19 13  1  0  0  0
 25 21  1  0  0  0
 12 36  1  0  0  0
M  END
>  <CHROM.0>
-147.98697175,6.31780621,-169.29135512,60.35776452,-62.26342214,5.13482574

>  <CHROM.1>
140.38409589,98.47281033,-105.74841010,4.01607109,-12.08077195,64.18278198
11.28405580,-29.50656822,-2.63399821,2.49437503,0.52805610,3.02622777

>  <RI>
2.95534e+07

>  <Rbt.Current_Directory>
/extra/banzai2/j5wagner/CELPP/2016_10_17_rdock_implementation/normal_run/tutorialVideo/tutorial_rdock_implementation/full_week_run/4-docking/5m96/hiResHolo_5aph_docking

>  <Rbt.Executable>
rbdock ($Id: //depot/dev/client3/rdock/2013.1/src/exe/rbdock.cxx#4 $)

>  <Rbt.Library>
libRbt.so (2013.1, Build901 2013/11/27)

>  <Rbt.Parameter_File>
/home/j5wagner/env_00/source/rDock/rDock_2013.1_src//data/scripts/dock.prm

>  <Rbt.Receptor>
/extra/banzai2/j5wagner/CELPP/2016_10_17_rdock_implementation/normal_run/tutorialVideo/tutorial_rdock_implementation/full_week_run/4-docking/5m96/hiResHolo_5aph_tech_prep/rDockGridGenInput.prm

>  <SCORE>
-22.4542

>  <SCORE.INTER>
-16.3317

>  <SCORE.INTER.CONST>
1

>  <SCORE.INTER.POLAR>
-0.893477

>  <SCORE.INTER.REPUL>
0.0152134

>  <SCORE.INTER.ROT>
5

>  <SCORE.INTER.VDW>
-23.77

>  <SCORE.INTER.norm>
-0.466621

>  <SCORE.INTRA>
-0.0911645

>  <SCORE.INTRA.DIHEDRAL>
-0.400634

>  <SCORE.INTRA.DIHEDRAL.0>
9.74364

>  <SCORE.INTRA.POLAR>
0

>  <SCORE.INTRA.POLAR.0>
0

>  <SCORE.INTRA.REPUL>
-0.108387

>  <SCORE.INTRA.REPUL.0>
0.108387

>  <SCORE.INTRA.VDW>
0.651089

>  <SCORE.INTRA.VDW.0>
-2.87247

>  <SCORE.INTRA.norm>
-0.0026047

>  <SCORE.RESTR>
0

>  <SCORE.RESTR.CAVITY>
0

>  <SCORE.RESTR.norm>
0

>  <SCORE.SYSTEM>
-6.03135

>  <SCORE.SYSTEM.CONST>
0

>  <SCORE.SYSTEM.DIHEDRAL>
1.61361

>  <SCORE.SYSTEM.POLAR>
-1.87247

>  <SCORE.SYSTEM.REPUL>
0.00213031

>  <SCORE.SYSTEM.VDW>
-0.482406

>  <SCORE.SYSTEM.norm>
-0.172324

>  <SCORE.heavy>
35

>  <SCORE.norm>
-0.64155

$$$$

  rDOCK(R)          3D
libRbt.so/2013.1/901 2013/11/27
 36 40  0  0  0  0  0  0  0  0999 V2000
    8.3697  -33.4692   -4.6256 C   0  0  0  0  0  0
    7.2068  -33.6356   -3.6395 C   0  0  0  0  0  0
    9.2944  -32.3104   -4.2119 C   0  0  0  0  0  0
   10.0603  -32.6591   -2.9963 N   0  0  0  0  0  0
   10.8678  -31.5020   -2.5583 C   0  0  0  0  0  0
    9.9783  -30.3152   -2.2378 C   0  0  0  0  0  0
   10.2972  -28.9717   -2.5993 C   0  0  0  0  0  0
   11.5953  -28.6592   -3.3081 C   0  0  0  0  0  0
    9.3689  -27.9264   -2.3188 C   0  0  0  0  0  0
    9.6751  -26.5712   -2.6918 N   0  0  0  0  0  0
    9.3324  -25.9782   -3.7989 C   0  0  0  0  0  0
    8.6644  -26.6902   -4.7989 O   0  0  0  0  0  0
    9.7098  -24.5581   -4.0048 C   0  0  0  0  0  0
    9.5466  -23.9263   -5.2471 C   0  0  0  0  0  0
    9.9132  -22.6284   -5.4064 N   0  0  0  0  0  0
   10.4311  -21.9123   -4.3739 C   0  0  0  0  0  0
   10.8705  -20.5024   -4.5880 C   0  0  0  0  0  0
   10.5976  -22.4993   -3.1609 N   0  0  0  0  0  0
   10.2466  -23.7946   -2.9550 C   0  0  0  0  0  0
    8.1898  -28.2268   -1.6094 C   0  0  0  0  0  0
    7.9502  -29.5129   -1.2671 N   0  0  0  0  0  0
    6.9114  -30.0416   -0.6069 C   0  0  0  0  0  0
    7.1376  -31.4027   -0.5162 C   0  0  0  0  0  0
    8.3103  -31.7190   -1.1151 N   0  0  0  0  0  0
    8.7721  -30.5295   -1.5585 C   0  0  0  0  0  0
   10.9203  -33.8321   -3.2612 C   0  0  0  0  0  0
   10.0551  -35.0454   -3.6018 C   0  0  0  0  0  0
    9.1511  -34.7145   -4.7121 N   0  0  0  0  0  0
    9.1340  -35.5354   -5.8983 C   0  0  0  0  0  0
   10.1951  -36.1084   -6.2717 O   0  0  0  0  0  0
    7.8530  -35.7805   -6.6726 C   0  0  0  0  0  0
    7.8755  -37.1352   -7.3862 C   0  0  0  0  0  0
    7.0719  -38.1074   -6.5212 C   0  0  0  0  0  0
    6.4686  -37.3016   -5.3747 C   0  0  0  0  0  0
    6.6486  -35.8366   -5.7375 C   0  0  0  0  0  0
    8.4286  -27.6693   -4.7061 H   0  0  0  0  0  0
  1  2  1  0  0  0
  1  3  1  0  0  0
  3  4  1  0  0  0
  4  5  1  0  0  0
  5  6  1  0  0  0
  6  7  2  0  0  0
  7  8  1  0  0  0
  7  9  1  0  0  0
  9 10  1  0  0  0
 10 11  2  0  0  0
 11 12  1  0  0  0
 11 13  1  0  0  0
 13 14  2  0  0  0
 14 15  1  0  0  0
 15 16  2  0  0  0
 16 17  1  0  0  0
 16 18  1  0  0  0
 18 19  2  0  0  0
  9 20  2  0  0  0
 20 21  1  0  0  0
 21 22  1  0  0  0
 22 23  2  0  0  0
 23 24  1  0  0  0
 24 25  2  0  0  0
  4 26  1  0  0  0
 26 27  1  0  0  0
 27 28  1  0  0  0
 28 29  1  0  0  0
 29 30  2  0  0  0
 29 31  1  0  0  0
 31 32  1  0  0  0
 32 33  1  0  0  0
 33 34  1  0  0  0
 34 35  1  0  0  0
 28  1  1  0  0  0
 35 31  1  0  0  0
 25  6  1  0  0  0
 19 13  1  0  0  0
 25 21  1  0  0  0
 12 36  1  0  0  0
M  END
>  <CHROM.0>
7.74880117,-172.26142699,12.41435770,60.78249075,-175.58691309,1.37677496

>  <CHROM.1>
60.25349224,-138.99358419,93.33609462,-0.15463172,170.36882319,-151.07473123
9.10492192,-30.33488760,-3.80103366,-2.32436335,1.35733304,0.86312167

>  <RI>
2.95534e+07

>  <Rbt.Current_Directory>
/extra/banzai2/j5wagner/CELPP/2016_10_17_rdock_implementation/normal_run/tutorialVideo/tutorial_rdock_implementation/full_week_run/4-docking/5m96/hiResHolo_5aph_docking

>  <Rbt.Executable>
rbdock ($Id: //depot/dev/client3/rdock/2013.1/src/exe/rbdock.cxx#4 $)

>  <Rbt.Library>
libRbt.so (2013.1, Build901 2013/11/27)

>  <Rbt.Parameter_File>
/home/j5wagner/env_00/source/rDock/rDock_2013.1_src//data/scripts/dock.prm

>  <Rbt.Receptor>
/extra/banzai2/j5wagner/CELPP/2016_10_17_rdock_implementation/normal_run/tutorialVideo/tutorial_rdock_implementation/full_week_run/4-docking/5m96/hiResHolo_5aph_tech_prep/rDockGridGenInput.prm

>  <SCORE>
-22.4235

>  <SCORE.INTER>
-16.5831

>  <SCORE.INTER.CONST>
1

>  <SCORE.INTER.POLAR>
0

>  <SCORE.INTER.REPUL>
0.0233577

>  <SCORE.INTER.ROT>
5

>  <SCORE.INTER.VDW>
-27.0999

>  <SCORE.INTER.norm>
-0.473803

>  <SCORE.INTRA>
2.01692

>  <SCORE.INTRA.DIHEDRAL>
-0.513883

>  <SCORE.INTRA.DIHEDRAL.0>
9.74364

>  <SCORE.INTRA.POLAR>
0

>  <SCORE.INTRA.POLAR.0>
0

>  <SCORE.INTRA.REPUL>
0.188678

>  <SCORE.INTRA.REPUL.0>
0.108387

>  <SCORE.INTRA.VDW>
1.33047

>  <SCORE.INTRA.VDW.0>
-2.87247

>  <SCORE.INTRA.norm>
0.0576264

>  <SCORE.RESTR>
0

>  <SCORE.RESTR.CAVITY>
0

>  <SCORE.RESTR.norm>
0

>  <SCORE.SYSTEM>
-7.85727

>  <SCORE.SYSTEM.CONST>
0

>  <SCORE.SYSTEM.DIHEDRAL>
0.474106

>  <SCORE.SYSTEM.POLAR>
-2.25892

>  <SCORE.SYSTEM.VDW>
-0.41399

>  <SCORE.SYSTEM.norm>
-0.224493

>  <SCORE.heavy>
35

>  <SCORE.norm>
-0.64067

$$$$

  rDOCK(R)          3D
libRbt.so/2013.1/901 2013/11/27
 36 40  0  0  0  0  0  0  0  0999 V2000
    8.7793  -33.0798   -4.2014 C   0  0  0  0  0  0
    8.7437  -32.1254   -5.4016 C   0  0  0  0  0  0
    9.1631  -32.3397   -2.9075 C   0  0  0  0  0  0
    8.0689  -31.4468   -2.4699 N   0  0  0  0  0  0
    8.4914  -30.6732   -1.2843 C   0  0  0  0  0  0
    9.5605  -29.6621   -1.6541 C   0  0  0  0  0  0
    9.2741  -28.3160   -2.0328 C   0  0  0  0  0  0
    7.8436  -27.8351   -2.1199 C   0  0  0  0  0  0
   10.3464  -27.4141   -2.2969 C   0  0  0  0  0  0
   10.0681  -26.0517   -2.6656 N   0  0  0  0  0  0
   10.9443  -25.1065   -2.8498 C   0  0  0  0  0  0
   12.2998  -25.3499   -2.6117 O   0  0  0  0  0  0
   10.4782  -23.7589   -3.2597 C   0  0  0  0  0  0
    9.1722  -23.3199   -2.9939 C   0  0  0  0  0  0
    8.7725  -22.0849   -3.3931 N   0  0  0  0  0  0
    9.6224  -21.2468   -4.0430 C   0  0  0  0  0  0
    9.1439  -19.9139   -4.5132 C   0  0  0  0  0  0
   10.8922  -21.6463   -4.3107 N   0  0  0  0  0  0
   11.3358  -22.8724   -3.9320 C   0  0  0  0  0  0
   11.6706  -27.8928   -2.2646 C   0  0  0  0  0  0
   11.8837  -29.1846   -1.9263 N   0  0  0  0  0  0
   13.0352  -29.8609   -1.8203 C   0  0  0  0  0  0
   12.7154  -31.1512   -1.4401 C   0  0  0  0  0  0
   11.3731  -31.2777   -1.3115 N   0  0  0  0  0  0
   10.9067  -30.0482   -1.6207 C   0  0  0  0  0  0
    6.8567  -32.2408   -2.1770 C   0  0  0  0  0  0
    6.3742  -32.9417   -3.4468 C   0  0  0  0  0  0
    7.4704  -33.7313   -4.0251 N   0  0  0  0  0  0
    7.2847  -35.1366   -4.2928 C   0  0  0  0  0  0
    6.5178  -35.8133   -3.5526 O   0  0  0  0  0  0
    7.9386  -35.8081   -5.4854 C   0  0  0  0  0  0
    7.7896  -37.3310   -5.4272 C   0  0  0  0  0  0
    6.6317  -37.7008   -6.3555 C   0  0  0  0  0  0
    6.1874  -36.4212   -7.0577 C   0  0  0  0  0  0
    7.2676  -35.3862   -6.7891 C   0  0  0  0  0  0
   13.0157  -24.6548   -2.7771 H   0  0  0  0  0  0
  1  2  1  0  0  0
  1  3  1  0  0  0
  3  4  1  0  0  0
  4  5  1  0  0  0
  5  6  1  0  0  0
  6  7  2  0  0  0
  7  8  1  0  0  0
  7  9  1  0  0  0
  9 10  1  0  0  0
 10 11  2  0  0  0
 11 12  1  0  0  0
 11 13  1  0  0  0
 13 14  2  0  0  0
 14 15  1  0  0  0
 15 16  2  0  0  0
 16 17  1  0  0  0
 16 18  1  0  0  0
 18 19  2  0  0  0
  9 20  2  0  0  0
 20 21  1  0  0  0
 21 22  1  0  0  0
 22 23  2  0  0  0
 23 24  1  0  0  0
 24 25  2  0  0  0
  4 26  1  0  0  0
 26 27  1  0  0  0
 27 28  1  0  0  0
 28 29  1  0  0  0
 29 30  2  0  0  0
 29 31  1  0  0  0
 31 32  1  0  0  0
 32 33  1  0  0  0
 33 34  1  0  0  0
 34 35  1  0  0  0
 28  1  1  0  0  0
 35 31  1  0  0  0
 25  6  1  0  0  0
 19 13  1  0  0  0
 25 21  1  0  0  0
 12 36  1  0  0  0
M  END
>  <CHROM.0>
-149.27983960,-169.61771430,12.76957301,-57.68370032,65.11011953,-1.18713154

>  <CHROM.1>
69.15664727,92.04212463,175.32450472,177.54148495,23.62301940,170.43252724
9.24918408,-29.65936297,-3.39398707,-1.88543600,-0.70198953,-0.07927449

>  <RI>
2.95534e+07

>  <Rbt.Current_Directory>
/extra/banzai2/j5wagner/CELPP/2016_10_17_rdock_implementation/normal_run/tutorialVideo/tutorial_rdock_implementation/full_week_run/4-docking/5m96/hiResHolo_5aph_docking

>  <Rbt.Executable>
rbdock ($Id: //depot/dev/client3/rdock/2013.1/src/exe/rbdock.cxx#4 $)

>  <Rbt.Library>
libRbt.so (2013.1, Build901 2013/11/27)

>  <Rbt.Parameter_File>
/home/j5wagner/env_00/source/rDock/rDock_2013.1_src//data/scripts/dock.prm

>  <Rbt.Receptor>
/extra/banzai2/j5wagner/CELPP/2016_10_17_rdock_implementation/normal_run/tutorialVideo/tutorial_rdock_implementation/full_week_run/4-docking/5m96/hiResHolo_5aph_tech_prep/rDockGridGenInput.prm

>  <SCORE>
-22.3143

>  <SCORE.INTER>
-14.4135

>  <SCORE.INTER.CONST>
1

>  <SCORE.INTER.POLAR>
-0.99024

>  <SCORE.INTER.REPUL>
0.15574

>  <SCORE.INTER.ROT>
5

>  <SCORE.INTER.VDW>
-22.2253

>  <SCORE.INTER.norm>
-0.411813

>  <SCORE.INTRA>
-1.4649

>  <SCORE.INTRA.DIHEDRAL>
-5.4713

>  <SCORE.INTRA.DIHEDRAL.0>
9.74364

>  <SCORE.INTRA.POLAR>
0

>  <SCORE.INTRA.POLAR.0>
0

>  <SCORE.INTRA.REPUL>
-0.108387

>  <SCORE.INTRA.REPUL.0>
0.108387

>  <SCORE.INTRA.VDW>
1.81269

>  <SCORE.INTRA.VDW.0>
-2.87247

>  <SCORE.INTRA.norm>
-0.0418542

>  <SCORE.RESTR>
0.124186

>  <SCORE.RESTR.CAVITY>
0.124186

>  <SCORE.RESTR.norm>
0.00354818

>  <SCORE.SYSTEM>
-6.56013

>  <SCORE.SYSTEM.CONST>
0

>  <SCORE.SYSTEM.DIHEDRAL>
1.73068

>  <SCORE.SYSTEM.POLAR>
-2.19415

>  <SCORE.SYSTEM.REPUL>
0.00121107

>  <SCORE.SYSTEM.VDW>
0.0285755

>  <SCORE.SYSTEM.norm>
-0.187432

>  <SCORE.heavy>
35

>  <SCORE.norm>
-0.637551

$$$$

  rDOCK(R)          3D
libRbt.so/2013.1/901 2013/11/27
 36 40  0  0  0  0  0  0  0  0999 V2000
    8.5162  -33.1641   -4.5126 C   0  0  0  0  0  0
    7.1590  -32.9768   -3.8231 C   0  0  0  0  0  0
    9.5635  -32.1768   -3.9670 C   0  0  0  0  0  0
    9.9476  -32.5310   -2.5839 N   0  0  0  0  0  0
   10.8778  -31.5189   -2.0427 C   0  0  0  0  0  0
   10.2988  -30.1238   -2.1869 C   0  0  0  0  0  0
   11.0247  -29.0224   -2.7323 C   0  0  0  0  0  0
   12.4611  -29.1962   -3.1700 C   0  0  0  0  0  0
   10.3778  -27.7622   -2.8946 C   0  0  0  0  0  0
   11.0967  -26.6499   -3.4563 N   0  0  0  0  0  0
   10.6270  -25.7683   -4.2911 C   0  0  0  0  0  0
    9.3275  -25.8962   -4.7895 O   0  0  0  0  0  0
   11.5065  -24.6635   -4.7463 C   0  0  0  0  0  0
   12.7948  -24.4844   -4.2198 C   0  0  0  0  0  0
   13.5708  -23.4557   -4.6488 N   0  0  0  0  0  0
   13.1282  -22.5895   -5.5980 C   0  0  0  0  0  0
   13.9817  -21.4396   -6.0171 C   0  0  0  0  0  0
   11.8861  -22.7418   -6.1253 N   0  0  0  0  0  0
   11.0746  -23.7545   -5.7263 C   0  0  0  0  0  0
    9.0572  -27.6031   -2.4312 C   0  0  0  0  0  0
    8.4253  -28.6728   -1.8975 N   0  0  0  0  0  0
    7.1848  -28.7721   -1.4016 C   0  0  0  0  0  0
    7.0174  -30.0795   -0.9840 C   0  0  0  0  0  0
    8.1469  -30.7893   -1.2174 N   0  0  0  0  0  0
    8.9809  -29.8854   -1.7761 C   0  0  0  0  0  0
   10.5598  -33.8765   -2.5593 C   0  0  0  0  0  0
    9.5409  -34.9204   -3.0163 C   0  0  0  0  0  0
    8.9987  -34.5434   -4.3290 N   0  0  0  0  0  0
    9.0579  -35.4749   -5.4291 C   0  0  0  0  0  0
   10.0191  -36.2901   -5.5008 O   0  0  0  0  0  0
    7.9553  -35.5430   -6.4685 C   0  0  0  0  0  0
    8.0199  -36.8429   -7.2752 C   0  0  0  0  0  0
    6.9751  -37.7883   -6.6803 C   0  0  0  0  0  0
    6.2087  -37.0062   -5.6180 C   0  0  0  0  0  0
    6.5791  -35.5445   -5.8096 C   0  0  0  0  0  0
    8.9281  -25.2381   -5.4455 H   0  0  0  0  0  0
  1  2  1  0  0  0
  1  3  1  0  0  0
  3  4  1  0  0  0
  4  5  1  0  0  0
  5  6  1  0  0  0
  6  7  2  0  0  0
  7  8  1  0  0  0
  7  9  1  0  0  0
  9 10  1  0  0  0
 10 11  2  0  0  0
 11 12  1  0  0  0
 11 13  1  0  0  0
 13 14  2  0  0  0
 14 15  1  0  0  0
 15 16  2  0  0  0
 16 17  1  0  0  0
 16 18  1  0  0  0
 18 19  2  0  0  0
  9 20  2  0  0  0
 20 21  1  0  0  0
 21 22  1  0  0  0
 22 23  2  0  0  0
 23 24  1  0  0  0
 24 25  2  0  0  0
  4 26  1  0  0  0
 26 27  1  0  0  0
 27 28  1  0  0  0
 28 29  1  0  0  0
 29 30  2  0  0  0
 29 31  1  0  0  0
 31 32  1  0  0  0
 32 33  1  0  0  0
 33 34  1  0  0  0
 34 35  1  0  0  0
 28  1  1  0  0  0
 35 31  1  0  0  0
 25  6  1  0  0  0
 19 13  1  0  0  0
 25 21  1  0  0  0
 12 36  1  0  0  0
M  END
>  <CHROM.0>
-7.12777963,-2.15777464,13.21005734,59.88904831,61.81417479,-0.38705787

>  <CHROM.1>
52.91586961,-131.14431953,140.55075579,-179.44594657,-5.12617529,-163.22234454
9.75743322,-30.16687093,-4.02739329,-2.32794800,1.08342419,0.72500454

>  <RI>
2.95534e+07

>  <Rbt.Current_Directory>
/extra/banzai2/j5wagner/CELPP/2016_10_17_rdock_implementation/normal_run/tutorialVideo/tutorial_rdock_implementation/full_week_run/4-docking/5m96/hiResHolo_5aph_docking

>  <Rbt.Executable>
rbdock ($Id: //depot/dev/client3/rdock/2013.1/src/exe/rbdock.cxx#4 $)

>  <Rbt.Library>
libRbt.so (2013.1, Build901 2013/11/27)

>  <Rbt.Parameter_File>
/home/j5wagner/env_00/source/rDock/rDock_2013.1_src//data/scripts/dock.prm

>  <Rbt.Receptor>
/extra/banzai2/j5wagner/CELPP/2016_10_17_rdock_implementation/normal_run/tutorialVideo/tutorial_rdock_implementation/full_week_run/4-docking/5m96/hiResHolo_5aph_tech_prep/rDockGridGenInput.prm

>  <SCORE>
-22.226

>  <SCORE.INTER>
-13.9244

>  <SCORE.INTER.CONST>
1

>  <SCORE.INTER.POLAR>
0

>  <SCORE.INTER.REPUL>
0

>  <SCORE.INTER.ROT>
5

>  <SCORE.INTER.VDW>
-24.3244

>  <SCORE.INTER.norm>
-0.397839

>  <SCORE.INTRA>
-0.735146

>  <SCORE.INTRA.DIHEDRAL>
-5.15471

>  <SCORE.INTRA.DIHEDRAL.0>
9.74364

>  <SCORE.INTRA.POLAR>
0

>  <SCORE.INTRA.POLAR.0>
0

>  <SCORE.INTRA.REPUL>
0.0681013

>  <SCORE.INTRA.REPUL.0>
0.108387

>  <SCORE.INTRA.VDW>
1.5017

>  <SCORE.INTRA.VDW.0>
-2.87247

>  <SCORE.INTRA.norm>
-0.0210042

>  <SCORE.RESTR>
0

>  <SCORE.RESTR.CAVITY>
0

>  <SCORE.RESTR.norm>
0

>  <SCORE.SYSTEM>
-7.56648

>  <SCORE.SYSTEM.CONST>
0

>  <SCORE.SYSTEM.DIHEDRAL>
0.344036

>  <SCORE.SYSTEM.POLAR>
-2.27008

>  <SCORE.SYSTEM.VDW>
-0.0202401

>  <SCORE.SYSTEM.norm>
-0.216185

>  <SCORE.heavy>
35

>  <SCORE.norm>
-0.635028

$$$$

  rDOCK(R)          3D
libRbt.so/2013.1/901 2013/11/27
 36 40  0  0  0  0  0  0  0  0999 V2000
    8.0565  -33.0718   -4.2114 C   0  0  0  0  0  0
    7.2580  -32.8085   -2.9286 C   0  0  0  0  0  0
    8.8265  -31.8168   -4.6602 C   0  0  0  0  0  0
    9.9454  -31.5301   -3.7373 N   0  0  0  0  0  0
   10.6115  -30.2702   -4.1266 C   0  0  0  0  0  0
   10.8038  -29.3682   -2.9218 C   0  0  0  0  0  0
   12.0827  -29.0426   -2.3778 C   0  0  0  0  0  0
   13.3395  -29.6317   -2.9765 C   0  0  0  0  0  0
   12.1733  -28.1306   -1.2856 C   0  0  0  0  0  0
   13.4586  -27.7854   -0.7395 N   0  0  0  0  0  0
   14.4650  -27.2794   -1.3922 C   0  0  0  0  0  0
   14.3838  -27.0959   -2.7753 O   0  0  0  0  0  0
   15.7128  -26.9548   -0.6580 C   0  0  0  0  0  0
   15.6941  -26.5760    0.6930 C   0  0  0  0  0  0
   16.8528  -26.2734    1.3333 N   0  0  0  0  0  0
   18.0490  -26.3407    0.6917 C   0  0  0  0  0  0
   19.3024  -25.9567    1.4045 C   0  0  0  0  0  0
   18.0952  -26.7065   -0.6152 N   0  0  0  0  0  0
   16.9625  -27.0168   -1.2965 C   0  0  0  0  0  0
   10.9899  -27.6341   -0.7052 C   0  0  0  0  0  0
    9.8035  -27.9967   -1.2432 N   0  0  0  0  0  0
    8.5604  -27.6554   -0.8787 C   0  0  0  0  0  0
    7.6932  -28.2859   -1.7516 C   0  0  0  0  0  0
    8.3919  -29.0161   -2.6531 N   0  0  0  0  0  0
    9.6795  -28.8090   -2.3009 C   0  0  0  0  0  0
   10.9034  -32.6561   -3.7410 C   0  0  0  0  0  0
   10.2196  -33.9228   -3.2267 C   0  0  0  0  0  0
    9.0024  -34.1821   -4.0080 N   0  0  0  0  0  0
    8.8161  -35.4596   -4.6517 C   0  0  0  0  0  0
    9.8229  -36.0970   -5.0689 O   0  0  0  0  0  0
    7.4415  -36.0879   -4.7804 C   0  0  0  0  0  0
    6.5455  -35.2940   -5.7353 C   0  0  0  0  0  0
    6.5699  -36.0242   -7.0790 C   0  0  0  0  0  0
    7.3665  -37.3103   -6.8815 C   0  0  0  0  0  0
    7.5317  -37.4876   -5.3810 C   0  0  0  0  0  0
   15.1953  -26.9080   -3.3489 H   0  0  0  0  0  0
  1  2  1  0  0  0
  1  3  1  0  0  0
  3  4  1  0  0  0
  4  5  1  0  0  0
  5  6  1  0  0  0
  6  7  2  0  0  0
  7  8  1  0  0  0
  7  9  1  0  0  0
  9 10  1  0  0  0
 10 11  2  0  0  0
 11 12  1  0  0  0
 11 13  1  0  0  0
 13 14  2  0  0  0
 14 15  1  0  0  0
 15 16  2  0  0  0
 16 17  1  0  0  0
 16 18  1  0  0  0
 18 19  2  0  0  0
  9 20  2  0  0  0
 20 21  1  0  0  0
 21 22  1  0  0  0
 22 23  2  0  0  0
 23 24  1  0  0  0
 24 25  2  0  0  0
  4 26  1  0  0  0
 26 27  1  0  0  0
 27 28  1  0  0  0
 28 29  1  0  0  0
 29 30  2  0  0  0
 29 31  1  0  0  0
 31 32  1  0  0  0
 32 33  1  0  0  0
 33 34  1  0  0  0
 34 35  1  0  0  0
 28  1  1  0  0  0
 35 31  1  0  0  0
 25  6  1  0  0  0
 19 13  1  0  0  0
 25 21  1  0  0  0
 12 36  1  0  0  0
M  END
>  <CHROM.0>
17.26211096,-160.77030680,13.56639917,-176.52447255,-61.07576264,20.28489425

>  <CHROM.1>
131.79049665,112.81400858,56.56427899,-165.80263840,-30.10897564,67.96630309
11.28435273,-30.56620603,-2.69117688,2.27350777,0.10080286,-2.69787993

>  <RI>
2.95534e+07

>  <Rbt.Current_Directory>
/extra/banzai2/j5wagner/CELPP/2016_10_17_rdock_implementation/normal_run/tutorialVideo/tutorial_rdock_implementation/full_week_run/4-docking/5m96/hiResHolo_5aph_docking

>  <Rbt.Executable>
rbdock ($Id: //depot/dev/client3/rdock/2013.1/src/exe/rbdock.cxx#4 $)

>  <Rbt.Library>
libRbt.so (2013.1, Build901 2013/11/27)

>  <Rbt.Parameter_File>
/home/j5wagner/env_00/source/rDock/rDock_2013.1_src//data/scripts/dock.prm

>  <Rbt.Receptor>
/extra/banzai2/j5wagner/CELPP/2016_10_17_rdock_implementation/normal_run/tutorialVideo/tutorial_rdock_implementation/full_week_run/4-docking/5m96/hiResHolo_5aph_tech_prep/rDockGridGenInput.prm

>  <SCORE>
-22.2235

>  <SCORE.INTER>
-19.1199

>  <SCORE.INTER.CONST>
1

>  <SCORE.INTER.POLAR>
-1.27929

>  <SCORE.INTER.REPUL>
0

>  <SCORE.INTER.ROT>
5

>  <SCORE.INTER.VDW>
-25.1703

>  <SCORE.INTER.norm>
-0.546282

>  <SCORE.INTRA>
2.48231

>  <SCORE.INTRA.DIHEDRAL>
2.152

>  <SCORE.INTRA.DIHEDRAL.0>
9.74364

>  <SCORE.INTRA.POLAR>
0

>  <SCORE.INTRA.POLAR.0>
0

>  <SCORE.INTRA.REPUL>
-0.0951411

>  <SCORE.INTRA.REPUL.0>
0.108387

>  <SCORE.INTRA.VDW>
1.88201

>  <SCORE.INTRA.VDW.0>
-2.87247

>  <SCORE.INTRA.norm>
0.0709231

>  <SCORE.RESTR>
0

>  <SCORE.RESTR.CAVITY>
0

>  <SCORE.RESTR.norm>
0

>  <SCORE.SYSTEM>
-5.58596

>  <SCORE.SYSTEM.CONST>
0

>  <SCORE.SYSTEM.DIHEDRAL>
1.90182

>  <SCORE.SYSTEM.POLAR>
-1.72603

>  <SCORE.SYSTEM.VDW>
-0.668358

>  <SCORE.SYSTEM.norm>
-0.159599

>  <SCORE.heavy>
35

>  <SCORE.norm>
-0.634958

$$$$

  rDOCK(R)          3D
libRbt.so/2013.1/901 2013/11/27
 36 40  0  0  0  0  0  0  0  0999 V2000
    8.5381  -32.9778   -4.8832 C   0  0  0  0  0  0
    7.2390  -32.8112   -4.0849 C   0  0  0  0  0  0
    9.5720  -31.9031   -4.5024 C   0  0  0  0  0  0
   10.0969  -32.1396   -3.1406 N   0  0  0  0  0  0
   11.0127  -31.0463   -2.7549 C   0  0  0  0  0  0
   10.2569  -29.7396   -2.6020 C   0  0  0  0  0  0
   10.7878  -28.4727   -2.9900 C   0  0  0  0  0  0
   12.1864  -28.3713   -3.5546 C   0  0  0  0  0  0
    9.9796  -27.3037   -2.8743 C   0  0  0  0  0  0
   10.5008  -26.0244   -3.2758 N   0  0  0  0  0  0
    9.9202  -25.1663   -4.0642 C   0  0  0  0  0  0
    8.7040  -25.4849   -4.6744 O   0  0  0  0  0  0
   10.5935  -23.8749   -4.3478 C   0  0  0  0  0  0
   11.9881  -23.7399   -4.2702 C   0  0  0  0  0  0
   12.5730  -22.5408   -4.5240 N   0  0  0  0  0  0
   11.8310  -21.4552   -4.8676 C   0  0  0  0  0  0
   12.4940  -20.1378   -5.0943 C   0  0  0  0  0  0
   10.4797  -21.5595   -4.9517 N   0  0  0  0  0  0
    9.8510  -22.7374   -4.7057 C   0  0  0  0  0  0
    8.6997  -27.4079   -2.2956 C   0  0  0  0  0  0
    8.2566  -28.6291   -1.9201 N   0  0  0  0  0  0
    7.0904  -28.9801   -1.3620 C   0  0  0  0  0  0
    7.1242  -30.3499   -1.1771 C   0  0  0  0  0  0
    8.3045  -30.8483   -1.6160 N   0  0  0  0  0  0
    8.9650  -29.7570   -2.0607 C   0  0  0  0  0  0
   10.7841  -33.4474   -3.0850 C   0  0  0  0  0  0
    9.7893  -34.5708   -3.3767 C   0  0  0  0  0  0
    9.1122  -34.3147   -4.6555 N   0  0  0  0  0  0
    9.1261  -35.3168   -5.6931 C   0  0  0  0  0  0
   10.1218  -36.0856   -5.8000 O   0  0  0  0  0  0
    7.9412  -35.5132   -6.6194 C   0  0  0  0  0  0
    8.0229  -36.8483   -7.3648 C   0  0  0  0  0  0
    7.1050  -37.8258   -6.6291 C   0  0  0  0  0  0
    6.3855  -37.0383   -5.5384 C   0  0  0  0  0  0
    6.6340  -35.5683   -5.8345 C   0  0  0  0  0  0
    8.2896  -24.9110   -5.3968 H   0  0  0  0  0  0
  1  2  1  0  0  0
  1  3  1  0  0  0
  3  4  1  0  0  0
  4  5  1  0  0  0
  5  6  1  0  0  0
  6  7  2  0  0  0
  7  8  1  0  0  0
  7  9  1  0  0  0
  9 10  1  0  0  0
 10 11  2  0  0  0
 11 12  1  0  0  0
 11 13  1  0  0  0
 13 14  2  0  0  0
 14 15  1  0  0  0
 15 16  2  0  0  0
 16 17  1  0  0  0
 16 18  1  0  0  0
 18 19  2  0  0  0
  9 20  2  0  0  0
 20 21  1  0  0  0
 21 22  1  0  0  0
 22 23  2  0  0  0
 23 24  1  0  0  0
 24 25  2  0  0  0
  4 26  1  0  0  0
 26 27  1  0  0  0
 27 28  1  0  0  0
 28 29  1  0  0  0
 29 30  2  0  0  0
 29 31  1  0  0  0
 31 32  1  0  0  0
 32 33  1  0  0  0
 33 34  1  0  0  0
 34 35  1  0  0  0
 28  1  1  0  0  0
 35 31  1  0  0  0
 25  6  1  0  0  0
 19 13  1  0  0  0
 25 21  1  0  0  0
 12 36  1  0  0  0
M  END
>  <CHROM.0>
-147.96254733,9.37004895,13.20583238,-176.68815615,-177.88345629,-2.29178267

>  <CHROM.1>
67.00691539,-142.73860343,129.87843410,-170.57372753,25.99465384,-164.45390347
9.47909535,-29.78037458,-4.06635083,-2.07451066,1.09577325,0.54090662

>  <RI>
2.95534e+07

>  <Rbt.Current_Directory>
/extra/banzai2/j5wagner/CELPP/2016_10_17_rdock_implementation/normal_run/tutorialVideo/tutorial_rdock_implementation/full_week_run/4-docking/5m96/hiResHolo_5aph_docking

>  <Rbt.Executable>
rbdock ($Id: //depot/dev/client3/rdock/2013.1/src/exe/rbdock.cxx#4 $)

>  <Rbt.Library>
libRbt.so (2013.1, Build901 2013/11/27)

>  <Rbt.Parameter_File>
/home/j5wagner/env_00/source/rDock/rDock_2013.1_src//data/scripts/dock.prm

>  <Rbt.Receptor>
/extra/banzai2/j5wagner/CELPP/2016_10_17_rdock_implementation/normal_run/tutorialVideo/tutorial_rdock_implementation/full_week_run/4-docking/5m96/hiResHolo_5aph_tech_prep/rDockGridGenInput.prm

>  <SCORE>
-20.9864

>  <SCORE.INTER>
-15.0278

>  <SCORE.INTER.CONST>
1

>  <SCORE.INTER.POLAR>
0

>  <SCORE.INTER.REPUL>
0

>  <SCORE.INTER.ROT>
5

>  <SCORE.INTER.VDW>
-25.4278

>  <SCORE.INTER.norm>
-0.429366

>  <SCORE.INTRA>
1.48066

>  <SCORE.INTRA.DIHEDRAL>
-0.915021

>  <SCORE.INTRA.DIHEDRAL.0>
9.74364

>  <SCORE.INTRA.POLAR>
0

>  <SCORE.INTRA.POLAR.0>
0

>  <SCORE.INTRA.REPUL>
0.275503

>  <SCORE.INTRA.REPUL.0>
0.108387

>  <SCORE.INTRA.VDW>
0.560655

>  <SCORE.INTRA.VDW.0>
-2.87247

>  <SCORE.INTRA.norm>
0.0423046

>  <SCORE.RESTR>
0

>  <SCORE.RESTR.CAVITY>
0

>  <SCORE.RESTR.norm>
0

>  <SCORE.SYSTEM>
-7.43925

>  <SCORE.SYSTEM.CONST>
0

>  <SCORE.SYSTEM.DIHEDRAL>
1.73569

>  <SCORE.SYSTEM.POLAR>
-2.26258

>  <SCORE.SYSTEM.REPUL>
0.00239861

>  <SCORE.SYSTEM.VDW>
-0.626306

>  <SCORE.SYSTEM.norm>
-0.21255

>  <SCORE.heavy>
35

>  <SCORE.norm>
-0.599611

$$$$

  rDOCK(R)          3D
libRbt.so/2013.1/901 2013/11/27
 36 40  0  0  0  0  0  0  0  0999 V2000
   11.5229  -26.0876   -5.0094 C   0  0  0  0  0  0
   12.8069  -26.1672   -4.1742 C   0  0  0  0  0  0
   10.4464  -27.0499   -4.4760 C   0  0  0  0  0  0
    9.9170  -26.5775   -3.1789 N   0  0  0  0  0  0
    8.9579  -27.5613   -2.6359 C   0  0  0  0  0  0
    9.5626  -28.9528   -2.6243 C   0  0  0  0  0  0
    8.9072  -30.1008   -3.1630 C   0  0  0  0  0  0
    7.5212  -29.9814   -3.7545 C   0  0  0  0  0  0
    9.5799  -31.3579   -3.1718 C   0  0  0  0  0  0
    8.9332  -32.5177   -3.7251 N   0  0  0  0  0  0
    9.5200  -33.5909   -4.1707 C   0  0  0  0  0  0
   10.9152  -33.6616   -4.2138 O   0  0  0  0  0  0
    8.6898  -34.7094   -4.6817 C   0  0  0  0  0  0
    7.2905  -34.6203   -4.7389 C   0  0  0  0  0  0
    6.5581  -35.6666   -5.2006 N   0  0  0  0  0  0
    7.1565  -36.8104   -5.6258 C   0  0  0  0  0  0
    6.3265  -37.9629   -6.0834 C   0  0  0  0  0  0
    8.5091  -36.9217   -5.5828 N   0  0  0  0  0  0
    9.2821  -35.9024   -5.1280 C   0  0  0  0  0  0
   10.8478  -31.4628   -2.5675 C   0  0  0  0  0  0
   11.4113  -30.3489   -2.0478 N   0  0  0  0  0  0
   12.5937  -30.1952   -1.4371 C   0  0  0  0  0  0
   12.7045  -28.8599   -1.0960 C   0  0  0  0  0  0
   11.5976  -28.1868   -1.4906 N   0  0  0  0  0  0
   10.8340  -29.1405   -2.0671 C   0  0  0  0  0  0
    9.2778  -25.2550   -3.3466 C   0  0  0  0  0  0
   10.3159  -24.2289   -3.8005 C   0  0  0  0  0  0
   10.9960  -24.7125   -5.0101 N   0  0  0  0  0  0
   11.0292  -23.8921   -6.1964 C   0  0  0  0  0  0
   10.0636  -23.1170   -6.4421 O   0  0  0  0  0  0
   12.2298  -23.8898   -7.1234 C   0  0  0  0  0  0
   12.2976  -25.1694   -7.9619 C   0  0  0  0  0  0
   11.7305  -24.8285   -9.3408 C   0  0  0  0  0  0
   11.4536  -23.3283   -9.3587 C   0  0  0  0  0  0
   12.1415  -22.7494   -8.1332 C   0  0  0  0  0  0
   11.4094  -34.4672   -4.5739 H   0  0  0  0  0  0
  1  2  1  0  0  0
  1  3  1  0  0  0
  3  4  1  0  0  0
  4  5  1  0  0  0
  5  6  1  0  0  0
  6  7  2  0  0  0
  7  8  1  0  0  0
  7  9  1  0  0  0
  9 10  1  0  0  0
 10 11  2  0  0  0
 11 12  1  0  0  0
 11 13  1  0  0  0
 13 14  2  0  0  0
 14 15  1  0  0  0
 15 16  2  0  0  0
 16 17  1  0  0  0
 16 18  1  0  0  0
 18 19  2  0  0  0
  9 20  2  0  0  0
 20 21  1  0  0  0
 21 22  1  0  0  0
 22 23  2  0  0  0
 23 24  1  0  0  0
 24 25  2  0  0  0
  4 26  1  0  0  0
 26 27  1  0  0  0
 27 28  1  0  0  0
 28 29  1  0  0  0
 29 30  2  0  0  0
 29 31  1  0  0  0
 31 32  1  0  0  0
 32 33  1  0  0  0
 33 34  1  0  0  0
 34 35  1  0  0  0
 28  1  1  0  0  0
 35 31  1  0  0  0
 25  6  1  0  0  0
 19 13  1  0  0  0
 25 21  1  0  0  0
 12 36  1  0  0  0
M  END
>  <CHROM.0>
10.38731314,5.02561770,13.00162268,-177.87925517,63.57992034,9.49957948

>  <CHROM.1>
51.20158564,-129.79932351,157.67225271,-178.43262128,2.21825067,74.19140604
10.12217318,-29.24552632,-4.57300042,-0.71514488,1.20507502,2.18206335

>  <RI>
2.95534e+07

>  <Rbt.Current_Directory>
/extra/banzai2/j5wagner/CELPP/2016_10_17_rdock_implementation/normal_run/tutorialVideo/tutorial_rdock_implementation/full_week_run/4-docking/5m96/hiResHolo_5aph_docking

>  <Rbt.Executable>
rbdock ($Id: //depot/dev/client3/rdock/2013.1/src/exe/rbdock.cxx#4 $)

>  <Rbt.Library>
libRbt.so (2013.1, Build901 2013/11/27)

>  <Rbt.Parameter_File>
/home/j5wagner/env_00/source/rDock/rDock_2013.1_src//data/scripts/dock.prm

>  <Rbt.Receptor>
/extra/banzai2/j5wagner/CELPP/2016_10_17_rdock_implementation/normal_run/tutorialVideo/tutorial_rdock_implementation/full_week_run/4-docking/5m96/hiResHolo_5aph_tech_prep/rDockGridGenInput.prm

>  <SCORE>
-20.6891

>  <SCORE.INTER>
-13.8306

>  <SCORE.INTER.CONST>
1

>  <SCORE.INTER.POLAR>
0

>  <SCORE.INTER.REPUL>
0

>  <SCORE.INTER.ROT>
5

>  <SCORE.INTER.VDW>
-24.2306

>  <SCORE.INTER.norm>
-0.395161

>  <SCORE.INTRA>
-1.21196

>  <SCORE.INTRA.DIHEDRAL>
-6.9692

>  <SCORE.INTRA.DIHEDRAL.0>
9.74364

>  <SCORE.INTRA.POLAR>
0

>  <SCORE.INTRA.POLAR.0>
0

>  <SCORE.INTRA.REPUL>
0.0478975

>  <SCORE.INTRA.REPUL.0>
0.108387

>  <SCORE.INTRA.VDW>
2.03315

>  <SCORE.INTRA.VDW.0>
-2.87247

>  <SCORE.INTRA.norm>
-0.0346276

>  <SCORE.RESTR>
0

>  <SCORE.RESTR.CAVITY>
0

>  <SCORE.RESTR.norm>
0

>  <SCORE.SYSTEM>
-5.64646

>  <SCORE.SYSTEM.CONST>
0

>  <SCORE.SYSTEM.DIHEDRAL>
0.673507

>  <SCORE.SYSTEM.POLAR>
-1.72791

>  <SCORE.SYSTEM.VDW>
-0.108315

>  <SCORE.SYSTEM.norm>
-0.161327

>  <SCORE.heavy>
35

>  <SCORE.norm>
-0.591116

$$$$

  rDOCK(R)          3D
libRbt.so/2013.1/901 2013/11/27
 36 40  0  0  0  0  0  0  0  0999 V2000
    7.9446  -32.0181   -4.1483 C   0  0  0  0  0  0
    7.0682  -31.2352   -3.1626 C   0  0  0  0  0  0
    8.8929  -31.0833   -4.9203 C   0  0  0  0  0  0
    9.9485  -30.5554   -4.0298 N   0  0  0  0  0  0
   10.7894  -29.5861   -4.7620 C   0  0  0  0  0  0
   11.1442  -28.4053   -3.8776 C   0  0  0  0  0  0
   12.3520  -28.3226   -3.1214 C   0  0  0  0  0  0
   13.3450  -29.4621   -3.1414 C   0  0  0  0  0  0
   12.6352  -27.1436   -2.3712 C   0  0  0  0  0  0
   13.8563  -27.0451   -1.6171 N   0  0  0  0  0  0
   14.7166  -26.0691   -1.6633 C   0  0  0  0  0  0
   14.5367  -25.0170   -2.5655 O   0  0  0  0  0  0
   15.9137  -26.1189   -0.7882 C   0  0  0  0  0  0
   15.8030  -26.1140    0.6107 C   0  0  0  0  0  0
   16.9189  -26.1481    1.3840 N   0  0  0  0  0  0
   18.1581  -26.1992    0.8283 C   0  0  0  0  0  0
   19.3693  -26.1873    1.6997 C   0  0  0  0  0  0
   18.2930  -26.2070   -0.5229 N   0  0  0  0  0  0
   17.2061  -26.1729   -1.3359 C   0  0  0  0  0  0
   11.6747  -26.1148   -2.3197 C   0  0  0  0  0  0
   10.5351  -26.2568   -3.0337 N   0  0  0  0  0  0
    9.4907  -25.4259   -3.1496 C   0  0  0  0  0  0
    8.5833  -26.0297   -4.0003 C   0  0  0  0  0  0
    9.0592  -27.2295   -4.4104 N   0  0  0  0  0  0
   10.2561  -27.3254   -3.7914 C   0  0  0  0  0  0
   10.7655  -31.6684   -3.5011 C   0  0  0  0  0  0
    9.8950  -32.5960   -2.6534 C   0  0  0  0  0  0
    8.7324  -33.0381   -3.4358 N   0  0  0  0  0  0
    8.4585  -34.4462   -3.5889 C   0  0  0  0  0  0
    9.4183  -35.2660   -3.6132 O   0  0  0  0  0  0
    7.0378  -34.9734   -3.6551 C   0  0  0  0  0  0
    6.3449  -34.5656   -4.9583 C   0  0  0  0  0  0
    6.4151  -35.7718   -5.8961 C   0  0  0  0  0  0
    7.0261  -36.9251   -5.1060 C   0  0  0  0  0  0
    7.0174  -36.4990   -3.6471 C   0  0  0  0  0  0
   13.7690  -24.9882   -3.2234 H   0  0  0  0  0  0
  1  2  1  0  0  0
  1  3  1  0  0  0
  3  4  1  0  0  0
  4  5  1  0  0  0
  5  6  1  0  0  0
  6  7  2  0  0  0
  7  8  1  0  0  0
  7  9  1  0  0  0
  9 10  1  0  0  0
 10 11  2  0  0  0
 11 12  1  0  0  0
 11 13  1  0  0  0
 13 14  2  0  0  0
 14 15  1  0  0  0
 15 16  2  0  0  0
 16 17  1  0  0  0
 16 18  1  0  0  0
 18 19  2  0  0  0
  9 20  2  0  0  0
 20 21  1  0  0  0
 21 22  1  0  0  0
 22 23  2  0  0  0
 23 24  1  0  0  0
 24 25  2  0  0  0
  4 26  1  0  0  0
 26 27  1  0  0  0
 27 28  1  0  0  0
 28 29  1  0  0  0
 29 30  2  0  0  0
 29 31  1  0  0  0
 31 32  1  0  0  0
 32 33  1  0  0  0
 33 34  1  0  0  0
 34 35  1  0  0  0
 28  1  1  0  0  0
 35 31  1  0  0  0
 25  6  1  0  0  0
 19 13  1  0  0  0
 25 21  1  0  0  0
 12 36  1  0  0  0
M  END
>  <CHROM.0>
24.68729786,5.59747858,11.42072334,61.16486538,-64.37222930,2.08672529

>  <CHROM.1>
140.14732564,94.50809434,128.66162477,-2.12306326,-62.77507234,69.64362435
11.39074268,-29.58524755,-2.82369825,2.45398031,0.48063270,3.05738618

>  <RI>
2.95534e+07

>  <Rbt.Current_Directory>
/extra/banzai2/j5wagner/CELPP/2016_10_17_rdock_implementation/normal_run/tutorialVideo/tutorial_rdock_implementation/full_week_run/4-docking/5m96/hiResHolo_5aph_docking

>  <Rbt.Executable>
rbdock ($Id: //depot/dev/client3/rdock/2013.1/src/exe/rbdock.cxx#4 $)

>  <Rbt.Library>
libRbt.so (2013.1, Build901 2013/11/27)

>  <Rbt.Parameter_File>
/home/j5wagner/env_00/source/rDock/rDock_2013.1_src//data/scripts/dock.prm

>  <Rbt.Receptor>
/extra/banzai2/j5wagner/CELPP/2016_10_17_rdock_implementation/normal_run/tutorialVideo/tutorial_rdock_implementation/full_week_run/4-docking/5m96/hiResHolo_5aph_tech_prep/rDockGridGenInput.prm

>  <SCORE>
-20.2874

>  <SCORE.INTER>
-16.4821

>  <SCORE.INTER.CONST>
1

>  <SCORE.INTER.POLAR>
-0.831373

>  <SCORE.INTER.REPUL>
0

>  <SCORE.INTER.ROT>
5

>  <SCORE.INTER.VDW>
-24.0554

>  <SCORE.INTER.norm>
-0.470916

>  <SCORE.INTRA>
3.72867

>  <SCORE.INTRA.DIHEDRAL>
7.43129

>  <SCORE.INTRA.DIHEDRAL.0>
9.74364

>  <SCORE.INTRA.POLAR>
0

>  <SCORE.INTRA.POLAR.0>
0

>  <SCORE.INTRA.REPUL>
-0.108387

>  <SCORE.INTRA.REPUL.0>
0.108387

>  <SCORE.INTRA.VDW>
0.554962

>  <SCORE.INTRA.VDW.0>
-2.87247

>  <SCORE.INTRA.norm>
0.106534

>  <SCORE.RESTR>
0

>  <SCORE.RESTR.CAVITY>
0

>  <SCORE.RESTR.norm>
0

>  <SCORE.SYSTEM>
-7.53401

>  <SCORE.SYSTEM.CONST>
0

>  <SCORE.SYSTEM.DIHEDRAL>
1.1419

>  <SCORE.SYSTEM.POLAR>
-2.24221

>  <SCORE.SYSTEM.VDW>
-0.481448

>  <SCORE.SYSTEM.norm>
-0.215257

>  <SCORE.heavy>
35

>  <SCORE.norm>
-0.57964

$$$$

  rDOCK(R)          3D
libRbt.so/2013.1/901 2013/11/27
 36 40  0  0  0  0  0  0  0  0999 V2000
   10.5866  -25.1897   -5.0090 C   0  0  0  0  0  0
   11.7051  -25.9895   -5.6887 C   0  0  0  0  0  0
    9.5064  -26.1192   -4.4273 C   0  0  0  0  0  0
   10.0231  -26.8528   -3.2523 N   0  0  0  0  0  0
    9.0076  -27.8101   -2.7674 C   0  0  0  0  0  0
    9.5868  -29.2096   -2.6770 C   0  0  0  0  0  0
    8.9128  -30.3732   -3.1556 C   0  0  0  0  0  0
    7.5316  -30.2615   -3.7596 C   0  0  0  0  0  0
    9.5626  -31.6408   -3.0925 C   0  0  0  0  0  0
    8.8971  -32.8173   -3.5851 N   0  0  0  0  0  0
    8.8430  -33.2129   -4.8242 C   0  0  0  0  0  0
    9.4014  -32.4278   -5.8367 O   0  0  0  0  0  0
    8.1342  -34.4751   -5.1495 C   0  0  0  0  0  0
    8.0680  -34.9640   -6.4632 C   0  0  0  0  0  0
    7.4009  -36.1164   -6.7300 N   0  0  0  0  0  0
    6.7967  -36.8244   -5.7397 C   0  0  0  0  0  0
    6.0295  -38.0619   -6.0664 C   0  0  0  0  0  0
    6.8475  -36.3744   -4.4596 N   0  0  0  0  0  0
    7.5018  -35.2269   -4.1455 C   0  0  0  0  0  0
   10.8260  -31.7354   -2.4772 C   0  0  0  0  0  0
   11.4076  -30.6050   -2.0161 N   0  0  0  0  0  0
   12.5902  -30.4395   -1.4089 C   0  0  0  0  0  0
   12.7239  -29.0897   -1.1405 C   0  0  0  0  0  0
   11.6309  -28.4194   -1.5767 N   0  0  0  0  0  0
   10.8525  -29.3893   -2.1041 C   0  0  0  0  0  0
   10.3993  -25.8987   -2.1874 C   0  0  0  0  0  0
   11.5300  -24.9932   -2.6756 C   0  0  0  0  0  0
   11.1388  -24.3461   -3.9356 N   0  0  0  0  0  0
   11.1879  -22.9092   -4.0548 C   0  0  0  0  0  0
   10.9702  -22.1943   -3.0373 O   0  0  0  0  0  0
   11.5610  -22.2359   -5.3618 C   0  0  0  0  0  0
   11.2398  -20.7389   -5.3371 C   0  0  0  0  0  0
   12.5504  -20.0072   -5.0437 C   0  0  0  0  0  0
   13.6601  -21.0542   -5.0273 C   0  0  0  0  0  0
   13.0631  -22.3225   -5.6147 C   0  0  0  0  0  0
    9.8967  -31.5664   -5.6481 H   0  0  0  0  0  0
  1  2  1  0  0  0
  1  3  1  0  0  0
  3  4  1  0  0  0
  4  5  1  0  0  0
  5  6  1  0  0  0
  6  7  2  0  0  0
  7  8  1  0  0  0
  7  9  1  0  0  0
  9 10  1  0  0  0
 10 11  2  0  0  0
 11 12  1  0  0  0
 11 13  1  0  0  0
 13 14  2  0  0  0
 14 15  1  0  0  0
 15 16  2  0  0  0
 16 17  1  0  0  0
 16 18  1  0  0  0
 18 19  2  0  0  0
  9 20  2  0  0  0
 20 21  1  0  0  0
 21 22  1  0  0  0
 22 23  2  0  0  0
 23 24  1  0  0  0
 24 25  2  0  0  0
  4 26  1  0  0  0
 26 27  1  0  0  0
 27 28  1  0  0  0
 28 29  1  0  0  0
 29 30  2  0  0  0
 29 31  1  0  0  0
 31 32  1  0  0  0
 32 33  1  0  0  0
 33 34  1  0  0  0
 34 35  1  0  0  0
 28  1  1  0  0  0
 35 31  1  0  0  0
 25  6  1  0  0  0
 19 13  1  0  0  0
 25 21  1  0  0  0
 12 36  1  0  0  0
M  END
>  <CHROM.0>
-147.41539238,3.74640085,13.67231525,60.50228535,-61.32754380,4.99176528

>  <CHROM.1>
126.04948682,-134.54486515,82.71753702,3.02842183,-178.66301507,167.07501198
10.05856540,-28.78811473,-4.01891531,0.92523461,-1.03340178,-0.52389897

>  <RI>
2.95534e+07

>  <Rbt.Current_Directory>
/extra/banzai2/j5wagner/CELPP/2016_10_17_rdock_implementation/normal_run/tutorialVideo/tutorial_rdock_implementation/full_week_run/4-docking/5m96/hiResHolo_5aph_docking

>  <Rbt.Executable>
rbdock ($Id: //depot/dev/client3/rdock/2013.1/src/exe/rbdock.cxx#4 $)

>  <Rbt.Library>
libRbt.so (2013.1, Build901 2013/11/27)

>  <Rbt.Parameter_File>
/home/j5wagner/env_00/source/rDock/rDock_2013.1_src//data/scripts/dock.prm

>  <Rbt.Receptor>
/extra/banzai2/j5wagner/CELPP/2016_10_17_rdock_implementation/normal_run/tutorialVideo/tutorial_rdock_implementation/full_week_run/4-docking/5m96/hiResHolo_5aph_tech_prep/rDockGridGenInput.prm

>  <SCORE>
-19.58

>  <SCORE.INTER>
-10.5505

>  <SCORE.INTER.CONST>
1

>  <SCORE.INTER.POLAR>
0

>  <SCORE.INTER.REPUL>
0

>  <SCORE.INTER.ROT>
5

>  <SCORE.INTER.VDW>
-20.9505

>  <SCORE.INTER.norm>
-0.301444

>  <SCORE.INTRA>
0.19819

>  <SCORE.INTRA.DIHEDRAL>
0.719354

>  <SCORE.INTRA.DIHEDRAL.0>
9.74364

>  <SCORE.INTRA.POLAR>
0

>  <SCORE.INTRA.POLAR.0>
0

>  <SCORE.INTRA.REPUL>
-0.0441786

>  <SCORE.INTRA.REPUL.0>
0.108387

>  <SCORE.INTRA.VDW>
0.0594055

>  <SCORE.INTRA.VDW.0>
-2.87247

>  <SCORE.INTRA.norm>
0.00566256

>  <SCORE.RESTR>
0.0359093

>  <SCORE.RESTR.CAVITY>
0.0359093

>  <SCORE.RESTR.norm>
0.00102598

>  <SCORE.SYSTEM>
-9.26355

>  <SCORE.SYSTEM.CONST>
0

>  <SCORE.SYSTEM.DIHEDRAL>
1.69863

>  <SCORE.SYSTEM.POLAR>
-2.79948

>  <SCORE.SYSTEM.REPUL>
0.0083989

>  <SCORE.SYSTEM.VDW>
-0.636614

>  <SCORE.SYSTEM.norm>
-0.264673

>  <SCORE.heavy>
35

>  <SCORE.norm>
-0.559428

$$$$

  rDOCK(R)          3D
libRbt.so/2013.1/901 2013/11/27
 36 40  0  0  0  0  0  0  0  0999 V2000
   11.5942  -23.9053   -4.1346 C   0  0  0  0  0  0
   10.6163  -22.7436   -3.9187 C   0  0  0  0  0  0
   11.7429  -24.7572   -2.8612 C   0  0  0  0  0  0
   10.5094  -25.5291   -2.5997 N   0  0  0  0  0  0
   10.6337  -26.2638   -1.3240 C   0  0  0  0  0  0
   11.5279  -27.4787   -1.4873 C   0  0  0  0  0  0
   11.0350  -28.7854   -1.7824 C   0  0  0  0  0  0
    9.5489  -29.0295   -1.9129 C   0  0  0  0  0  0
   11.9538  -29.8562   -1.9877 C   0  0  0  0  0  0
   11.4673  -31.1736   -2.2994 N   0  0  0  0  0  0
   11.1874  -31.6337   -3.4846 C   0  0  0  0  0  0
   11.2747  -30.7974   -4.6009 O   0  0  0  0  0  0
   10.7225  -33.0358   -3.6244 C   0  0  0  0  0  0
   10.6165  -33.8895   -2.5158 C   0  0  0  0  0  0
   10.1992  -35.1716   -2.6788 N   0  0  0  0  0  0
    9.8658  -35.6518   -3.9057 C   0  0  0  0  0  0
    9.4563  -37.0779   -4.0645 C   0  0  0  0  0  0
    9.9575  -34.8458   -4.9947 N   0  0  0  0  0  0
   10.3709  -33.5576   -4.8803 C   0  0  0  0  0  0
   13.3313  -29.6234   -1.8085 C   0  0  0  0  0  0
   13.7418  -28.3719   -1.5023 N   0  0  0  0  0  0
   14.9805  -27.9066   -1.2929 C   0  0  0  0  0  0
   14.8664  -26.5565   -1.0174 C   0  0  0  0  0  0
   13.5648  -26.1839   -1.0537 N   0  0  0  0  0  0
   12.9143  -27.3294   -1.3529 C   0  0  0  0  0  0
   10.2488  -26.4581   -3.7199 C   0  0  0  0  0  0
   10.0114  -25.6680   -5.0068 C   0  0  0  0  0  0
   11.1402  -24.7581   -5.2461 N   0  0  0  0  0  0
   11.8482  -24.8010   -6.5023 C   0  0  0  0  0  0
   11.9504  -25.8973   -7.1200 O   0  0  0  0  0  0
   12.4173  -23.5444   -7.1331 C   0  0  0  0  0  0
   13.1492  -23.8522   -8.4425 C   0  0  0  0  0  0
   12.1865  -23.5119   -9.5812 C   0  0  0  0  0  0
   10.9461  -22.8835   -8.9534 C   0  0  0  0  0  0
   11.3069  -22.5685   -7.5109 C   0  0  0  0  0  0
   11.0372  -31.1069   -5.5340 H   0  0  0  0  0  0
  1  2  1  0  0  0
  1  3  1  0  0  0
  3  4  1  0  0  0
  4  5  1  0  0  0
  5  6  1  0  0  0
  6  7  2  0  0  0
  7  8  1  0  0  0
  7  9  1  0  0  0
  9 10  1  0  0  0
 10 11  2  0  0  0
 11 12  1  0  0  0
 11 13  1  0  0  0
 13 14  2  0  0  0
 14 15  1  0  0  0
 15 16  2  0  0  0
 16 17  1  0  0  0
 16 18  1  0  0  0
 18 19  2  0  0  0
  9 20  2  0  0  0
 20 21  1  0  0  0
 21 22  1  0  0  0
 22 23  2  0  0  0
 23 24  1  0  0  0
 24 25  2  0  0  0
  4 26  1  0  0  0
 26 27  1  0  0  0
 27 28  1  0  0  0
 28 29  1  0  0  0
 29 30  2  0  0  0
 29 31  1  0  0  0
 31 32  1  0  0  0
 32 33  1  0  0  0
 33 34  1  0  0  0
 34 35  1  0  0  0
 28  1  1  0  0  0
 35 31  1  0  0  0
 25  6  1  0  0  0
 19 13  1  0  0  0
 25 21  1  0  0  0
 12 36  1  0  0  0
M  END
>  <CHROM.0>
-148.72688526,-170.12405602,14.34269445,61.75795645,-62.15797009,5.26611272

>  <CHROM.1>
-75.89743207,-93.81050888,86.74730153,-177.95939244,-1.98394475,178.68488191
11.48868387,-28.10159994,-3.94989077,-1.20426178,1.24142165,2.51775403

>  <RI>
2.95534e+07

>  <Rbt.Current_Directory>
/extra/banzai2/j5wagner/CELPP/2016_10_17_rdock_implementation/normal_run/tutorialVideo/tutorial_rdock_implementation/full_week_run/4-docking/5m96/hiResHolo_5aph_docking

>  <Rbt.Executable>
rbdock ($Id: //depot/dev/client3/rdock/2013.1/src/exe/rbdock.cxx#4 $)

>  <Rbt.Library>
libRbt.so (2013.1, Build901 2013/11/27)

>  <Rbt.Parameter_File>
/home/j5wagner/env_00/source/rDock/rDock_2013.1_src//data/scripts/dock.prm

>  <Rbt.Receptor>
/extra/banzai2/j5wagner/CELPP/2016_10_17_rdock_implementation/normal_run/tutorialVideo/tutorial_rdock_implementation/full_week_run/4-docking/5m96/hiResHolo_5aph_tech_prep/rDockGridGenInput.prm

>  <SCORE>
-19.3598

>  <SCORE.INTER>
-10.9987

>  <SCORE.INTER.CONST>
1

>  <SCORE.INTER.POLAR>
0

>  <SCORE.INTER.REPUL>
0.451111

>  <SCORE.INTER.ROT>
5

>  <SCORE.INTER.VDW>
-23.6542

>  <SCORE.INTER.norm>
-0.314248

>  <SCORE.INTRA>
0.925483

>  <SCORE.INTRA.DIHEDRAL>
-1.68113

>  <SCORE.INTRA.DIHEDRAL.0>
9.74364

>  <SCORE.INTRA.POLAR>
0

>  <SCORE.INTRA.POLAR.0>
0

>  <SCORE.INTRA.REPUL>
-0.108387

>  <SCORE.INTRA.REPUL.0>
0.108387

>  <SCORE.INTRA.VDW>
2.30799

>  <SCORE.INTRA.VDW.0>
-2.87247

>  <SCORE.INTRA.norm>
0.0264424

>  <SCORE.RESTR>
0

>  <SCORE.RESTR.CAVITY>
0

>  <SCORE.RESTR.norm>
0

>  <SCORE.SYSTEM>
-9.28663

>  <SCORE.SYSTEM.CONST>
0

>  <SCORE.SYSTEM.DIHEDRAL>
1.77449

>  <SCORE.SYSTEM.POLAR>
-2.77006

>  <SCORE.SYSTEM.VDW>
-0.755683

>  <SCORE.SYSTEM.norm>
-0.265332

>  <SCORE.heavy>
35

>  <SCORE.norm>
-0.553138

$$$$

  rDOCK(R)          3D
libRbt.so/2013.1/901 2013/11/27
 36 40  0  0  0  0  0  0  0  0999 V2000
   10.3010  -25.2475   -4.4255 C   0  0  0  0  0  0
   11.6426  -25.5840   -5.0885 C   0  0  0  0  0  0
   10.0881  -26.0695   -3.1417 C   0  0  0  0  0  0
   11.0030  -25.6174   -2.0718 N   0  0  0  0  0  0
   10.8536  -26.4793   -0.8813 C   0  0  0  0  0  0
   11.5877  -27.7933   -1.0724 C   0  0  0  0  0  0
   10.9475  -29.0001   -1.4862 C   0  0  0  0  0  0
    9.4549  -29.0300   -1.7239 C   0  0  0  0  0  0
   11.7280  -30.1726   -1.7077 C   0  0  0  0  0  0
   11.0938  -31.3900   -2.1383 N   0  0  0  0  0  0
   11.4151  -32.1024   -3.1795 C   0  0  0  0  0  0
   12.4161  -31.6618   -4.0497 O   0  0  0  0  0  0
   10.6679  -33.3537   -3.4576 C   0  0  0  0  0  0
    9.6324  -33.7938   -2.6191 C   0  0  0  0  0  0
    8.9758  -34.9503   -2.8945 N   0  0  0  0  0  0
    9.2937  -35.6968   -3.9848 C   0  0  0  0  0  0
    8.5895  -36.9877   -4.2383 C   0  0  0  0  0  0
   10.2904  -35.2922   -4.8135 N   0  0  0  0  0  0
   10.9753  -34.1439   -4.5776 C   0  0  0  0  0  0
   13.1082  -30.1420   -1.4289 C   0  0  0  0  0  0
   13.6589  -28.9791   -1.0129 N   0  0  0  0  0  0
   14.9306  -28.7013   -0.6966 C   0  0  0  0  0  0
   14.9779  -27.3672   -0.3366 C   0  0  0  0  0  0
   13.7432  -26.8183   -0.4269 N   0  0  0  0  0  0
   12.9688  -27.8438   -0.8434 C   0  0  0  0  0  0
   10.7282  -24.2038   -1.7372 C   0  0  0  0  0  0
   10.9991  -23.3188   -2.9538 C   0  0  0  0  0  0
   10.2324  -23.8114   -4.1066 N   0  0  0  0  0  0
    9.3482  -22.9216   -4.8190 C   0  0  0  0  0  0
    8.7676  -21.9915   -4.1933 O   0  0  0  0  0  0
    9.1503  -23.0359   -6.3185 C   0  0  0  0  0  0
    8.4330  -21.8087   -6.8881 C   0  0  0  0  0  0
    9.5082  -20.9078   -7.4976 C   0  0  0  0  0  0
   10.8334  -21.6584   -7.4070 C   0  0  0  0  0  0
   10.4901  -23.0945   -7.0462 C   0  0  0  0  0  0
   12.9083  -30.7882   -3.9168 H   0  0  0  0  0  0
  1  2  1  0  0  0
  1  3  1  0  0  0
  3  4  1  0  0  0
  4  5  1  0  0  0
  5  6  1  0  0  0
  6  7  2  0  0  0
  7  8  1  0  0  0
  7  9  1  0  0  0
  9 10  1  0  0  0
 10 11  2  0  0  0
 11 12  1  0  0  0
 11 13  1  0  0  0
 13 14  2  0  0  0
 14 15  1  0  0  0
 15 16  2  0  0  0
 16 17  1  0  0  0
 16 18  1  0  0  0
 18 19  2  0  0  0
  9 20  2  0  0  0
 20 21  1  0  0  0
 21 22  1  0  0  0
 22 23  2  0  0  0
 23 24  1  0  0  0
 24 25  2  0  0  0
  4 26  1  0  0  0
 26 27  1  0  0  0
 27 28  1  0  0  0
 28 29  1  0  0  0
 29 30  2  0  0  0
 29 31  1  0  0  0
 31 32  1  0  0  0
 32 33  1  0  0  0
 33 34  1  0  0  0
 34 35  1  0  0  0
 28  1  1  0  0  0
 35 31  1  0  0  0
 25  6  1  0  0  0
 19 13  1  0  0  0
 25 21  1  0  0  0
 12 36  1  0  0  0
M  END
>  <CHROM.0>
-149.45792782,-167.62305289,-162.07865165,-175.80895054,65.13214189,7.88016012

>  <CHROM.1>
78.30796829,-98.05126662,126.26135421,-0.93183964,-0.60511453,-167.03296513
10.91699815,-27.96372844,-3.33436464,1.64297445,-0.90368808,-0.12404583

>  <RI>
2.95534e+07

>  <Rbt.Current_Directory>
/extra/banzai2/j5wagner/CELPP/2016_10_17_rdock_implementation/normal_run/tutorialVideo/tutorial_rdock_implementation/full_week_run/4-docking/5m96/hiResHolo_5aph_docking

>  <Rbt.Executable>
rbdock ($Id: //depot/dev/client3/rdock/2013.1/src/exe/rbdock.cxx#4 $)

>  <Rbt.Library>
libRbt.so (2013.1, Build901 2013/11/27)

>  <Rbt.Parameter_File>
/home/j5wagner/env_00/source/rDock/rDock_2013.1_src//data/scripts/dock.prm

>  <Rbt.Receptor>
/extra/banzai2/j5wagner/CELPP/2016_10_17_rdock_implementation/normal_run/tutorialVideo/tutorial_rdock_implementation/full_week_run/4-docking/5m96/hiResHolo_5aph_tech_prep/rDockGridGenInput.prm

>  <SCORE>
-18.9904

>  <SCORE.INTER>
-13.7827

>  <SCORE.INTER.CONST>
1

>  <SCORE.INTER.POLAR>
-0.586548

>  <SCORE.INTER.REPUL>
0

>  <SCORE.INTER.ROT>
5

>  <SCORE.INTER.VDW>
-22.1885

>  <SCORE.INTER.norm>
-0.393792

>  <SCORE.INTRA>
-1.3609

>  <SCORE.INTRA.DIHEDRAL>
-3.29144

>  <SCORE.INTRA.DIHEDRAL.0>
9.74364

>  <SCORE.INTRA.POLAR>
0

>  <SCORE.INTRA.POLAR.0>
0

>  <SCORE.INTRA.REPUL>
-0.108387

>  <SCORE.INTRA.REPUL.0>
0.108387

>  <SCORE.INTRA.VDW>
0.82676

>  <SCORE.INTRA.VDW.0>
-2.87247

>  <SCORE.INTRA.norm>
-0.0388828

>  <SCORE.RESTR>
0.00169266

>  <SCORE.RESTR.CAVITY>
0.00169266

>  <SCORE.RESTR.norm>
4.83616e-05

>  <SCORE.SYSTEM>
-3.84846

>  <SCORE.SYSTEM.CONST>
0

>  <SCORE.SYSTEM.DIHEDRAL>
2.19307

>  <SCORE.SYSTEM.POLAR>
-1.31716

>  <SCORE.SYSTEM.VDW>
-0.466645

>  <SCORE.SYSTEM.norm>
-0.109956

>  <SCORE.heavy>
35

>  <SCORE.norm>
-0.542583

$$$$

  rDOCK(R)          3D
libRbt.so/2013.1/901 2013/11/27
 36 40  0  0  0  0  0  0  0  0999 V2000
    9.4412  -34.3502   -4.2188 C   0  0  0  0  0  0
   10.4125  -34.3153   -5.4054 C   0  0  0  0  0  0
    9.9572  -33.4968   -3.0464 C   0  0  0  0  0  0
    9.8829  -32.0569   -3.3733 N   0  0  0  0  0  0
   10.4717  -31.2589   -2.2782 C   0  0  0  0  0  0
   10.0354  -29.8088   -2.3740 C   0  0  0  0  0  0
   10.8386  -28.7814   -2.9543 C   0  0  0  0  0  0
   12.2190  -29.0981   -3.4825 C   0  0  0  0  0  0
   10.3195  -27.4581   -3.0650 C   0  0  0  0  0  0
   11.1160  -26.4189   -3.6611 N   0  0  0  0  0  0
   10.7623  -25.6416   -4.6438 C   0  0  0  0  0  0
    9.5309  -25.8280   -5.2779 O   0  0  0  0  0  0
   11.7053  -24.5973   -5.1145 C   0  0  0  0  0  0
   12.8153  -24.2093   -4.3487 C   0  0  0  0  0  0
   13.6530  -23.2414   -4.8023 N   0  0  0  0  0  0
   13.4462  -22.6384   -6.0026 C   0  0  0  0  0  0
   14.3540  -21.5443   -6.4559 C   0  0  0  0  0  0
   12.3806  -22.9968   -6.7641 N   0  0  0  0  0  0
   11.5157  -23.9585   -6.3511 C   0  0  0  0  0  0
    9.0540  -27.1685   -2.5186 C   0  0  0  0  0  0
    8.3466  -28.1740   -1.9556 N   0  0  0  0  0  0
    7.1354  -28.1503   -1.3839 C   0  0  0  0  0  0
    6.8569  -29.4391   -0.9678 C   0  0  0  0  0  0
    7.8888  -30.2598   -1.2774 N   0  0  0  0  0  0
    8.7777  -29.4398   -1.8795 C   0  0  0  0  0  0
    8.4775  -31.6661   -3.6138 C   0  0  0  0  0  0
    7.9265  -32.4228   -4.8223 C   0  0  0  0  0  0
    8.1118  -33.8678   -4.6299 N   0  0  0  0  0  0
    6.9821  -34.7598   -4.7269 C   0  0  0  0  0  0
    5.8383  -34.3523   -4.3814 O   0  0  0  0  0  0
    7.1245  -36.1578   -5.2980 C   0  0  0  0  0  0
    5.7741  -36.8757   -5.3756 C   0  0  0  0  0  0
    5.2919  -36.7616   -6.8226 C   0  0  0  0  0  0
    6.4093  -36.0980   -7.6217 C   0  0  0  0  0  0
    7.6420  -36.1147   -6.7326 C   0  0  0  0  0  0
    8.8765  -26.5464   -4.9976 H   0  0  0  0  0  0
  1  2  1  0  0  0
  1  3  1  0  0  0
  3  4  1  0  0  0
  4  5  1  0  0  0
  5  6  1  0  0  0
  6  7  2  0  0  0
  7  8  1  0  0  0
  7  9  1  0  0  0
  9 10  1  0  0  0
 10 11  2  0  0  0
 11 12  1  0  0  0
 11 13  1  0  0  0
 13 14  2  0  0  0
 14 15  1  0  0  0
 15 16  2  0  0  0
 16 17  1  0  0  0
 16 18  1  0  0  0
 18 19  2  0  0  0
  9 20  2  0  0  0
 20 21  1  0  0  0
 21 22  1  0  0  0
 22 23  2  0  0  0
 23 24  1  0  0  0
 24 25  2  0  0  0
  4 26  1  0  0  0
 26 27  1  0  0  0
 27 28  1  0  0  0
 28 29  1  0  0  0
 29 30  2  0  0  0
 29 31  1  0  0  0
 31 32  1  0  0  0
 32 33  1  0  0  0
 33 34  1  0  0  0
 34 35  1  0  0  0
 28  1  1  0  0  0
 35 31  1  0  0  0
 25  6  1  0  0  0
 19 13  1  0  0  0
 25 21  1  0  0  0
 12 36  1  0  0  0
M  END
>  <CHROM.0>
-148.67178880,12.99361201,12.54946699,-178.66756205,-178.21715910,-3.76009002

>  <CHROM.1>
-162.48824191,-98.54560936,126.49064380,0.88837974,-15.39172588,-176.46112875
9.47754876,-29.87429112,-4.25253410,-2.47442787,1.01536936,0.83556663

>  <RI>
2.95534e+07

>  <Rbt.Current_Directory>
/extra/banzai2/j5wagner/CELPP/2016_10_17_rdock_implementation/normal_run/tutorialVideo/tutorial_rdock_implementation/full_week_run/4-docking/5m96/hiResHolo_5aph_docking

>  <Rbt.Executable>
rbdock ($Id: //depot/dev/client3/rdock/2013.1/src/exe/rbdock.cxx#4 $)

>  <Rbt.Library>
libRbt.so (2013.1, Build901 2013/11/27)

>  <Rbt.Parameter_File>
/home/j5wagner/env_00/source/rDock/rDock_2013.1_src//data/scripts/dock.prm

>  <Rbt.Receptor>
/extra/banzai2/j5wagner/CELPP/2016_10_17_rdock_implementation/normal_run/tutorialVideo/tutorial_rdock_implementation/full_week_run/4-docking/5m96/hiResHolo_5aph_tech_prep/rDockGridGenInput.prm

>  <SCORE>
-18.2364

>  <SCORE.INTER>
-12.4828

>  <SCORE.INTER.CONST>
1

>  <SCORE.INTER.POLAR>
0

>  <SCORE.INTER.REPUL>
0

>  <SCORE.INTER.ROT>
5

>  <SCORE.INTER.VDW>
-22.8828

>  <SCORE.INTER.norm>
-0.356652

>  <SCORE.INTRA>
1.65934

>  <SCORE.INTRA.DIHEDRAL>
-2.83073

>  <SCORE.INTRA.DIHEDRAL.0>
9.74364

>  <SCORE.INTRA.POLAR>
0

>  <SCORE.INTRA.POLAR.0>
0

>  <SCORE.INTRA.REPUL>
-0.108387

>  <SCORE.INTRA.REPUL.0>
0.108387

>  <SCORE.INTRA.VDW>
3.61664

>  <SCORE.INTRA.VDW.0>
-2.87247

>  <SCORE.INTRA.norm>
0.0474096

>  <SCORE.RESTR>
0.0497993

>  <SCORE.RESTR.CAVITY>
0.0497993

>  <SCORE.RESTR.norm>
0.00142284

>  <SCORE.SYSTEM>
-7.46277

>  <SCORE.SYSTEM.CONST>
0

>  <SCORE.SYSTEM.DIHEDRAL>
1.72497

>  <SCORE.SYSTEM.POLAR>
-2.24897

>  <SCORE.SYSTEM.VDW>
-0.678757

>  <SCORE.SYSTEM.norm>
-0.213222

>  <SCORE.heavy>
35

>  <SCORE.norm>
-0.521041

$$$$

  rDOCK(R)          3D
libRbt.so/2013.1/901 2013/11/27
 36 40  0  0  0  0  0  0  0  0999 V2000
    7.0262  -32.5119   -2.4008 C   0  0  0  0  0  0
    7.4967  -33.1489   -1.0872 C   0  0  0  0  0  0
    6.8809  -30.9857   -2.2635 C   0  0  0  0  0  0
    8.2063  -30.3411   -2.1470 N   0  0  0  0  0  0
    8.0446  -28.8905   -1.9183 C   0  0  0  0  0  0
    9.3525  -28.1589   -2.1559 C   0  0  0  0  0  0
    9.6935  -27.5376   -3.3949 C   0  0  0  0  0  0
    8.7505  -27.6164   -4.5737 C   0  0  0  0  0  0
   10.9154  -26.8115   -3.5071 C   0  0  0  0  0  0
   11.2615  -26.1701   -4.7474 N   0  0  0  0  0  0
   10.7802  -25.0473   -5.1975 C   0  0  0  0  0  0
    9.7713  -24.3839   -4.4937 O   0  0  0  0  0  0
   11.2764  -24.5149   -6.4904 C   0  0  0  0  0  0
   12.2254  -25.2092   -7.2562 C   0  0  0  0  0  0
   12.6686  -24.6889   -8.4298 N   0  0  0  0  0  0
   12.2000  -23.5003   -8.8934 C   0  0  0  0  0  0
   12.7387  -22.9278  -10.1617 C   0  0  0  0  0  0
   11.2798  -22.8093   -8.1726 N   0  0  0  0  0  0
   10.8086  -23.2895   -6.9933 C   0  0  0  0  0  0
   11.8071  -26.7944   -2.4169 C   0  0  0  0  0  0
   11.4458  -27.4228   -1.2754 N   0  0  0  0  0  0
   12.1094  -27.5385   -0.1174 C   0  0  0  0  0  0
   11.3084  -28.2715    0.7386 C   0  0  0  0  0  0
   10.1540  -28.6111    0.1171 N   0  0  0  0  0  0
   10.2846  -28.0705   -1.1140 C   0  0  0  0  0  0
    9.0007  -30.5972   -3.3673 C   0  0  0  0  0  0
    9.2506  -32.0975   -3.5203 C   0  0  0  0  0  0
    7.9713  -32.8197   -3.4875 N   0  0  0  0  0  0
    7.6180  -33.7117   -4.5648 C   0  0  0  0  0  0
    8.0207  -33.4616   -5.7349 O   0  0  0  0  0  0
    6.8278  -34.9818   -4.3137 C   0  0  0  0  0  0
    6.2302  -35.5398   -5.6085 C   0  0  0  0  0  0
    7.1479  -36.6730   -6.0700 C   0  0  0  0  0  0
    8.2043  -36.8702   -4.9871 C   0  0  0  0  0  0
    7.7267  -36.0899   -3.7734 C   0  0  0  0  0  0
    9.3266  -23.5441   -4.8402 H   0  0  0  0  0  0
  1  2  1  0  0  0
  1  3  1  0  0  0
  3  4  1  0  0  0
  4  5  1  0  0  0
  5  6  1  0  0  0
  6  7  2  0  0  0
  7  8  1  0  0  0
  7  9  1  0  0  0
  9 10  1  0  0  0
 10 11  2  0  0  0
 11 12  1  0  0  0
 11 13  1  0  0  0
 13 14  2  0  0  0
 14 15  1  0  0  0
 15 16  2  0  0  0
 16 17  1  0  0  0
 16 18  1  0  0  0
 18 19  2  0  0  0
  9 20  2  0  0  0
 20 21  1  0  0  0
 21 22  1  0  0  0
 22 23  2  0  0  0
 23 24  1  0  0  0
 24 25  2  0  0  0
  4 26  1  0  0  0
 26 27  1  0  0  0
 27 28  1  0  0  0
 28 29  1  0  0  0
 29 30  2  0  0  0
 29 31  1  0  0  0
 31 32  1  0  0  0
 32 33  1  0  0  0
 33 34  1  0  0  0
 34 35  1  0  0  0
 28  1  1  0  0  0
 35 31  1  0  0  0
 25  6  1  0  0  0
 19 13  1  0  0  0
 25 21  1  0  0  0
 12 36  1  0  0  0
M  END
>  <CHROM.0>
-3.03429148,10.96896901,14.86551201,60.39047329,-177.03186937,15.94547172

>  <CHROM.1>
-165.17115216,95.22908405,77.74324936,-175.70961502,1.69570270,163.41659161
9.57505289,-29.14391793,-4.12765028,-2.88639357,-1.18468617,-1.56103746

>  <RI>
2.95534e+07

>  <Rbt.Current_Directory>
/extra/banzai2/j5wagner/CELPP/2016_10_17_rdock_implementation/normal_run/tutorialVideo/tutorial_rdock_implementation/full_week_run/4-docking/5m96/hiResHolo_5aph_docking

>  <Rbt.Executable>
rbdock ($Id: //depot/dev/client3/rdock/2013.1/src/exe/rbdock.cxx#4 $)

>  <Rbt.Library>
libRbt.so (2013.1, Build901 2013/11/27)

>  <Rbt.Parameter_File>
/home/j5wagner/env_00/source/rDock/rDock_2013.1_src//data/scripts/dock.prm

>  <Rbt.Receptor>
/extra/banzai2/j5wagner/CELPP/2016_10_17_rdock_implementation/normal_run/tutorialVideo/tutorial_rdock_implementation/full_week_run/4-docking/5m96/hiResHolo_5aph_tech_prep/rDockGridGenInput.prm

>  <SCORE>
-17.678

>  <SCORE.INTER>
-11.0324

>  <SCORE.INTER.CONST>
1

>  <SCORE.INTER.POLAR>
0

>  <SCORE.INTER.REPUL>
0

>  <SCORE.INTER.ROT>
5

>  <SCORE.INTER.VDW>
-21.4324

>  <SCORE.INTER.norm>
-0.315211

>  <SCORE.INTRA>
1.04431

>  <SCORE.INTRA.DIHEDRAL>
-1.12836

>  <SCORE.INTRA.DIHEDRAL.0>
9.74364

>  <SCORE.INTRA.POLAR>
0

>  <SCORE.INTRA.POLAR.0>
0

>  <SCORE.INTRA.REPUL>
-0.108387

>  <SCORE.INTRA.REPUL.0>
0.108387

>  <SCORE.INTRA.VDW>
2.15043

>  <SCORE.INTRA.VDW.0>
-2.87247

>  <SCORE.INTRA.norm>
0.0298375

>  <SCORE.RESTR>
0

>  <SCORE.RESTR.CAVITY>
0

>  <SCORE.RESTR.norm>
0

>  <SCORE.SYSTEM>
-7.68988

>  <SCORE.SYSTEM.CONST>
0

>  <SCORE.SYSTEM.DIHEDRAL>
0.975344

>  <SCORE.SYSTEM.POLAR>
-2.25113

>  <SCORE.SYSTEM.VDW>
-0.523712

>  <SCORE.SYSTEM.norm>
-0.219711

>  <SCORE.heavy>
35

>  <SCORE.norm>
-0.505084

$$$$

  rDOCK(R)          3D
libRbt.so/2013.1/901 2013/11/27
 36 40  0  0  0  0  0  0  0  0999 V2000
    9.7585  -33.9845   -2.8985 C   0  0  0  0  0  0
   10.7848  -35.0863   -2.6065 C   0  0  0  0  0  0
    9.9657  -32.7672   -1.9796 C   0  0  0  0  0  0
   11.2028  -32.0425   -2.3403 N   0  0  0  0  0  0
   11.4369  -30.9371   -1.3885 C   0  0  0  0  0  0
   10.7747  -29.6606   -1.8725 C   0  0  0  0  0  0
   11.4898  -28.5815   -2.4740 C   0  0  0  0  0  0
   12.9921  -28.6518   -2.6260 C   0  0  0  0  0  0
   10.7762  -27.4481   -2.9630 C   0  0  0  0  0  0
   11.4866  -26.3618   -3.5834 N   0  0  0  0  0  0
   11.0807  -25.6511   -4.5958 C   0  0  0  0  0  0
    9.8805  -25.9665   -5.2386 O   0  0  0  0  0  0
   11.9345  -24.5425   -5.0892 C   0  0  0  0  0  0
   11.6980  -23.9272   -6.3280 C   0  0  0  0  0  0
   12.5054  -22.9229   -6.7567 N   0  0  0  0  0  0
   13.5454  -22.4849   -5.9992 C   0  0  0  0  0  0
   14.4462  -21.4128   -6.5146 C   0  0  0  0  0  0
   13.7949  -23.0620   -4.7957 N   0  0  0  0  0  0
   13.0153  -24.0698   -4.3265 C   0  0  0  0  0  0
    9.3838  -27.3745   -2.7640 C   0  0  0  0  0  0
    8.7600  -28.4133   -2.1637 N   0  0  0  0  0  0
    7.4626  -28.5785   -1.8740 C   0  0  0  0  0  0
    7.3359  -29.8139   -1.2660 C   0  0  0  0  0  0
    8.5470  -30.4134   -1.1767 N   0  0  0  0  0  0
    9.3877  -29.5173   -1.7381 C   0  0  0  0  0  0
   11.1040  -31.5339   -3.7250 C   0  0  0  0  0  0
   10.9761  -32.7034   -4.7011 C   0  0  0  0  0  0
    9.8489  -33.5592   -4.3055 N   0  0  0  0  0  0
    8.8055  -33.8629   -5.2543 C   0  0  0  0  0  0
    8.5016  -33.0121   -6.1361 O   0  0  0  0  0  0
    8.1083  -35.2100   -5.2595 C   0  0  0  0  0  0
    6.7963  -35.1633   -6.0478 C   0  0  0  0  0  0
    7.0861  -35.7520   -7.4294 C   0  0  0  0  0  0
    8.5232  -36.2640   -7.4116 C   0  0  0  0  0  0
    8.9606  -36.2666   -5.9560 C   0  0  0  0  0  0
    9.5324  -25.4430   -6.0309 H   0  0  0  0  0  0
  1  2  1  0  0  0
  1  3  1  0  0  0
  3  4  1  0  0  0
  4  5  1  0  0  0
  5  6  1  0  0  0
  6  7  2  0  0  0
  7  8  1  0  0  0
  7  9  1  0  0  0
  9 10  1  0  0  0
 10 11  2  0  0  0
 11 12  1  0  0  0
 11 13  1  0  0  0
 13 14  2  0  0  0
 14 15  1  0  0  0
 15 16  2  0  0  0
 16 17  1  0  0  0
 16 18  1  0  0  0
 18 19  2  0  0  0
  9 20  2  0  0  0
 20 21  1  0  0  0
 21 22  1  0  0  0
 22 23  2  0  0  0
 23 24  1  0  0  0
 24 25  2  0  0  0
  4 26  1  0  0  0
 26 27  1  0  0  0
 27 28  1  0  0  0
 28 29  1  0  0  0
 29 30  2  0  0  0
 29 31  1  0  0  0
 31 32  1  0  0  0
 32 33  1  0  0  0
 33 34  1  0  0  0
 34 35  1  0  0  0
 28  1  1  0  0  0
 35 31  1  0  0  0
 25  6  1  0  0  0
 19 13  1  0  0  0
 25 21  1  0  0  0
 12 36  1  0  0  0
M  END
>  <CHROM.0>
10.92025742,12.54359967,13.97937171,-177.28858254,178.40747739,5.59399157

>  <CHROM.1>
-90.23399556,-103.17411290,143.42561847,-179.67754776,166.47564543,163.28583491
10.34182089,-29.68523819,-4.08013712,2.98911726,-1.23092150,-1.75443815

>  <RI>
2.95534e+07

>  <Rbt.Current_Directory>
/extra/banzai2/j5wagner/CELPP/2016_10_17_rdock_implementation/normal_run/tutorialVideo/tutorial_rdock_implementation/full_week_run/4-docking/5m96/hiResHolo_5aph_docking

>  <Rbt.Executable>
rbdock ($Id: //depot/dev/client3/rdock/2013.1/src/exe/rbdock.cxx#4 $)

>  <Rbt.Library>
libRbt.so (2013.1, Build901 2013/11/27)

>  <Rbt.Parameter_File>
/home/j5wagner/env_00/source/rDock/rDock_2013.1_src//data/scripts/dock.prm

>  <Rbt.Receptor>
/extra/banzai2/j5wagner/CELPP/2016_10_17_rdock_implementation/normal_run/tutorialVideo/tutorial_rdock_implementation/full_week_run/4-docking/5m96/hiResHolo_5aph_tech_prep/rDockGridGenInput.prm

>  <SCORE>
-17.6662

>  <SCORE.INTER>
-12.8503

>  <SCORE.INTER.CONST>
1

>  <SCORE.INTER.POLAR>
-0.229313

>  <SCORE.INTER.REPUL>
0

>  <SCORE.INTER.ROT>
5

>  <SCORE.INTER.VDW>
-22.4707

>  <SCORE.INTER.norm>
-0.367153

>  <SCORE.INTRA>
0.993

>  <SCORE.INTRA.DIHEDRAL>
-3.40367

>  <SCORE.INTRA.DIHEDRAL.0>
9.74364

>  <SCORE.INTRA.POLAR>
0

>  <SCORE.INTRA.POLAR.0>
0

>  <SCORE.INTRA.REPUL>
-0.108387

>  <SCORE.INTRA.REPUL.0>
0.108387

>  <SCORE.INTRA.VDW>
3.23677

>  <SCORE.INTRA.VDW.0>
-2.87247

>  <SCORE.INTRA.norm>
0.0283714

>  <SCORE.RESTR>
0.047249

>  <SCORE.RESTR.CAVITY>
0.047249

>  <SCORE.RESTR.norm>
0.00134997

>  <SCORE.SYSTEM>
-5.85614

>  <SCORE.SYSTEM.CONST>
0

>  <SCORE.SYSTEM.DIHEDRAL>
0.762324

>  <SCORE.SYSTEM.POLAR>
-1.72078

>  <SCORE.SYSTEM.VDW>
-0.386646

>  <SCORE.SYSTEM.norm>
-0.167318

>  <SCORE.heavy>
35

>  <SCORE.norm>
-0.50475

$$$$

  rDOCK(R)          3D
libRbt.so/2013.1/901 2013/11/27
 36 40  0  0  0  0  0  0  0  0999 V2000
   10.7341  -25.2018   -5.4412 C   0  0  0  0  0  0
   12.0399  -25.9277   -5.7880 C   0  0  0  0  0  0
    9.7622  -26.1260   -4.6859 C   0  0  0  0  0  0
   10.2538  -26.3989   -3.3186 N   0  0  0  0  0  0
    9.3611  -27.3633   -2.6435 C   0  0  0  0  0  0
    9.9649  -28.7553   -2.6555 C   0  0  0  0  0  0
    9.3032  -29.8960   -3.2017 C   0  0  0  0  0  0
    7.9113  -29.7685   -3.7774 C   0  0  0  0  0  0
    9.9749  -31.1533   -3.2330 C   0  0  0  0  0  0
    9.3217  -32.3057   -3.7941 N   0  0  0  0  0  0
    9.8533  -33.4786   -3.9855 C   0  0  0  0  0  0
   11.2072  -33.6890   -3.7101 O   0  0  0  0  0  0
    9.0182  -34.5670   -4.5506 C   0  0  0  0  0  0
    9.5351  -35.8533   -4.7683 C   0  0  0  0  0  0
    8.7479  -36.8247   -5.2984 N   0  0  0  0  0  0
    7.4494  -36.5814   -5.6173 C   0  0  0  0  0  0
    6.6199  -37.6524   -6.2430 C   0  0  0  0  0  0
    6.9240  -35.3458   -5.4148 N   0  0  0  0  0  0
    7.6731  -34.3433   -4.8884 C   0  0  0  0  0  0
   11.2489  -31.2665   -2.6432 C   0  0  0  0  0  0
   11.8185  -30.1595   -2.1154 N   0  0  0  0  0  0
   13.0072  -30.0141   -1.5151 C   0  0  0  0  0  0
   13.1225  -28.6832   -1.1585 C   0  0  0  0  0  0
   12.0120  -28.0046   -1.5334 N   0  0  0  0  0  0
   11.2419  -28.9506   -2.1137 C   0  0  0  0  0  0
   10.3421  -25.1371   -2.5531 C   0  0  0  0  0  0
   11.3566  -24.2005   -3.2090 C   0  0  0  0  0  0
   11.0121  -24.0083   -4.6245 N   0  0  0  0  0  0
   10.8368  -22.6764   -5.1504 C   0  0  0  0  0  0
   10.3883  -21.7665   -4.3990 O   0  0  0  0  0  0
   11.2420  -22.3264   -6.5697 C   0  0  0  0  0  0
   10.5044  -23.1907   -7.5963 C   0  0  0  0  0  0
    9.3494  -22.3482   -8.1397 C   0  0  0  0  0  0
    9.4836  -20.9529   -7.5373 C   0  0  0  0  0  0
   10.8660  -20.8871   -6.9088 C   0  0  0  0  0  0
   11.6630  -34.5787   -3.8639 H   0  0  0  0  0  0
  1  2  1  0  0  0
  1  3  1  0  0  0
  3  4  1  0  0  0
  4  5  1  0  0  0
  5  6  1  0  0  0
  6  7  2  0  0  0
  7  8  1  0  0  0
  7  9  1  0  0  0
  9 10  1  0  0  0
 10 11  2  0  0  0
 11 12  1  0  0  0
 11 13  1  0  0  0
 13 14  2  0  0  0
 14 15  1  0  0  0
 15 16  2  0  0  0
 16 17  1  0  0  0
 16 18  1  0  0  0
 18 19  2  0  0  0
  9 20  2  0  0  0
 20 21  1  0  0  0
 21 22  1  0  0  0
 22 23  2  0  0  0
 23 24  1  0  0  0
 24 25  2  0  0  0
  4 26  1  0  0  0
 26 27  1  0  0  0
 27 28  1  0  0  0
 28 29  1  0  0  0
 29 30  2  0  0  0
 29 31  1  0  0  0
 31 32  1  0  0  0
 32 33  1  0  0  0
 33 34  1  0  0  0
 34 35  1  0  0  0
 28  1  1  0  0  0
 35 31  1  0  0  0
 25  6  1  0  0  0
 19 13  1  0  0  0
 25 21  1  0  0  0
 12 36  1  0  0  0
M  END
>  <CHROM.0>
-148.95880242,-176.31400061,14.47493090,-178.07618025,-64.86093248,3.90354467

>  <CHROM.1>
101.35330268,-123.57170334,173.97801666,-178.64517948,-179.49161297,58.84135305
10.10180622,-28.67356485,-4.33480542,1.29999607,-0.95449225,-0.30790970

>  <RI>
2.95534e+07

>  <Rbt.Current_Directory>
/extra/banzai2/j5wagner/CELPP/2016_10_17_rdock_implementation/normal_run/tutorialVideo/tutorial_rdock_implementation/full_week_run/4-docking/5m96/hiResHolo_5aph_docking

>  <Rbt.Executable>
rbdock ($Id: //depot/dev/client3/rdock/2013.1/src/exe/rbdock.cxx#4 $)

>  <Rbt.Library>
libRbt.so (2013.1, Build901 2013/11/27)

>  <Rbt.Parameter_File>
/home/j5wagner/env_00/source/rDock/rDock_2013.1_src//data/scripts/dock.prm

>  <Rbt.Receptor>
/extra/banzai2/j5wagner/CELPP/2016_10_17_rdock_implementation/normal_run/tutorialVideo/tutorial_rdock_implementation/full_week_run/4-docking/5m96/hiResHolo_5aph_tech_prep/rDockGridGenInput.prm

>  <SCORE>
-17.0241

>  <SCORE.INTER>
-8.8765

>  <SCORE.INTER.CONST>
1

>  <SCORE.INTER.POLAR>
0

>  <SCORE.INTER.REPUL>
0

>  <SCORE.INTER.ROT>
5

>  <SCORE.INTER.VDW>
-19.2765

>  <SCORE.INTER.norm>
-0.253614

>  <SCORE.INTRA>
-1.07659

>  <SCORE.INTRA.DIHEDRAL>
-6.34101

>  <SCORE.INTRA.DIHEDRAL.0>
9.74364

>  <SCORE.INTRA.POLAR>
0

>  <SCORE.INTRA.POLAR.0>
0

>  <SCORE.INTRA.REPUL>
-0.0202257

>  <SCORE.INTRA.REPUL.0>
0.108387

>  <SCORE.INTRA.VDW>
2.19504

>  <SCORE.INTRA.VDW.0>
-2.87247

>  <SCORE.INTRA.norm>
-0.0307598

>  <SCORE.RESTR>
0.351649

>  <SCORE.RESTR.CAVITY>
0.351649

>  <SCORE.RESTR.norm>
0.0100471

>  <SCORE.SYSTEM>
-7.42261

>  <SCORE.SYSTEM.CONST>
0

>  <SCORE.SYSTEM.DIHEDRAL>
1.71707

>  <SCORE.SYSTEM.POLAR>
-2.23804

>  <SCORE.SYSTEM.VDW>
-0.671795

>  <SCORE.SYSTEM.norm>
-0.212075

>  <SCORE.heavy>
35

>  <SCORE.norm>
-0.486402

$$$$

  rDOCK(R)          3D
libRbt.so/2013.1/901 2013/11/27
 36 40  0  0  0  0  0  0  0  0999 V2000
   10.4752  -25.3168   -3.5054 C   0  0  0  0  0  0
    9.0151  -25.3413   -3.9745 C   0  0  0  0  0  0
   10.8792  -26.6542   -2.8592 C   0  0  0  0  0  0
   10.9738  -27.7214   -3.8780 N   0  0  0  0  0  0
   11.2660  -29.0158   -3.2286 C   0  0  0  0  0  0
    9.9899  -29.8048   -3.0022 C   0  0  0  0  0  0
    9.7714  -31.1154   -3.5239 C   0  0  0  0  0  0
   10.8222  -31.7802   -4.3834 C   0  0  0  0  0  0
    8.5689  -31.8110   -3.2028 C   0  0  0  0  0  0
    8.3455  -33.1376   -3.7124 N   0  0  0  0  0  0
    7.2810  -33.5583   -4.3325 C   0  0  0  0  0  0
    6.1792  -32.7127   -4.4882 O   0  0  0  0  0  0
    7.2342  -34.9591   -4.8191 C   0  0  0  0  0  0
    8.2798  -35.8605   -4.5676 C   0  0  0  0  0  0
    8.2121  -37.1330   -5.0372 N   0  0  0  0  0  0
    7.1354  -37.5647   -5.7454 C   0  0  0  0  0  0
    7.1074  -38.9532   -6.2911 C   0  0  0  0  0  0
    6.1091  -36.7131   -6.0009 N   0  0  0  0  0  0
    6.1334  -35.4318   -5.5526 C   0  0  0  0  0  0
    7.5773  -31.1561   -2.4467 C   0  0  0  0  0  0
    7.8253  -29.9039   -2.0004 N   0  0  0  0  0  0
    7.0537  -29.0899   -1.2677 C   0  0  0  0  0  0
    7.7662  -27.9212   -1.0726 C   0  0  0  0  0  0
    8.9732  -28.0065   -1.6810 N   0  0  0  0  0  0
    8.9629  -29.2378   -2.2366 C   0  0  0  0  0  0
   12.0167  -27.3815   -4.8692 C   0  0  0  0  0  0
   11.6349  -26.0984   -5.6072 C   0  0  0  0  0  0
   11.3726  -25.0267   -4.6365 N   0  0  0  0  0  0
   12.0781  -23.7724   -4.7378 C   0  0  0  0  0  0
   13.2558  -23.7578   -5.1921 O   0  0  0  0  0  0
   11.4132  -22.4590   -4.3724 C   0  0  0  0  0  0
   12.2875  -21.2599   -4.7503 C   0  0  0  0  0  0
   11.7446  -20.7119   -6.0710 C   0  0  0  0  0  0
   10.4795  -21.4979   -6.4020 C   0  0  0  0  0  0
   10.1113  -22.2690   -5.1450 C   0  0  0  0  0  0
    6.2021  -31.7345   -4.2319 H   0  0  0  0  0  0
  1  2  1  0  0  0
  1  3  1  0  0  0
  3  4  1  0  0  0
  4  5  1  0  0  0
  5  6  1  0  0  0
  6  7  2  0  0  0
  7  8  1  0  0  0
  7  9  1  0  0  0
  9 10  1  0  0  0
 10 11  2  0  0  0
 11 12  1  0  0  0
 11 13  1  0  0  0
 13 14  2  0  0  0
 14 15  1  0  0  0
 15 16  2  0  0  0
 16 17  1  0  0  0
 16 18  1  0  0  0
 18 19  2  0  0  0
  9 20  2  0  0  0
 20 21  1  0  0  0
 21 22  1  0  0  0
 22 23  2  0  0  0
 23 24  1  0  0  0
 24 25  2  0  0  0
  4 26  1  0  0  0
 26 27  1  0  0  0
 27 28  1  0  0  0
 28 29  1  0  0  0
 29 30  2  0  0  0
 29 31  1  0  0  0
 31 32  1  0  0  0
 32 33  1  0  0  0
 33 34  1  0  0  0
 34 35  1  0  0  0
 28  1  1  0  0  0
 35 31  1  0  0  0
 25  6  1  0  0  0
 19 13  1  0  0  0
 25 21  1  0  0  0
 12 36  1  0  0  0
M  END
>  <CHROM.0>
-147.63448987,177.64638386,13.32186007,59.74817711,63.32795650,9.59691921

>  <CHROM.1>
96.36285248,122.38788419,-129.45319894,7.30222939,3.30745413,-171.84891904
9.40641224,-29.19447534,-4.16135012,1.01917614,0.93333715,0.46684065

>  <RI>
2.95534e+07

>  <Rbt.Current_Directory>
/extra/banzai2/j5wagner/CELPP/2016_10_17_rdock_implementation/normal_run/tutorialVideo/tutorial_rdock_implementation/full_week_run/4-docking/5m96/hiResHolo_5aph_docking

>  <Rbt.Executable>
rbdock ($Id: //depot/dev/client3/rdock/2013.1/src/exe/rbdock.cxx#4 $)

>  <Rbt.Library>
libRbt.so (2013.1, Build901 2013/11/27)

>  <Rbt.Parameter_File>
/home/j5wagner/env_00/source/rDock/rDock_2013.1_src//data/scripts/dock.prm

>  <Rbt.Receptor>
/extra/banzai2/j5wagner/CELPP/2016_10_17_rdock_implementation/normal_run/tutorialVideo/tutorial_rdock_implementation/full_week_run/4-docking/5m96/hiResHolo_5aph_tech_prep/rDockGridGenInput.prm

>  <SCORE>
-17.0029

>  <SCORE.INTER>
-8.84576

>  <SCORE.INTER.CONST>
1

>  <SCORE.INTER.POLAR>
0

>  <SCORE.INTER.REPUL>
0

>  <SCORE.INTER.ROT>
5

>  <SCORE.INTER.VDW>
-19.2458

>  <SCORE.INTER.norm>
-0.252736

>  <SCORE.INTRA>
0.794682

>  <SCORE.INTRA.DIHEDRAL>
-2.78691

>  <SCORE.INTRA.DIHEDRAL.0>
9.74364

>  <SCORE.INTRA.POLAR>
0

>  <SCORE.INTRA.POLAR.0>
0

>  <SCORE.INTRA.REPUL>
-0.108387

>  <SCORE.INTRA.REPUL.0>
0.108387

>  <SCORE.INTRA.VDW>
2.73007

>  <SCORE.INTRA.VDW.0>
-2.87247

>  <SCORE.INTRA.norm>
0.0227052

>  <SCORE.RESTR>
0.235141

>  <SCORE.RESTR.CAVITY>
0.235141

>  <SCORE.RESTR.norm>
0.00671832

>  <SCORE.SYSTEM>
-9.18697

>  <SCORE.SYSTEM.CONST>
0

>  <SCORE.SYSTEM.DIHEDRAL>
1.8318

>  <SCORE.SYSTEM.POLAR>
-2.80708

>  <SCORE.SYSTEM.REPUL>
0.00599857

>  <SCORE.SYSTEM.VDW>
-0.588801

>  <SCORE.SYSTEM.norm>
-0.262485

>  <SCORE.heavy>
35

>  <SCORE.norm>
-0.485797

$$$$

  rDOCK(R)          3D
libRbt.so/2013.1/901 2013/11/27
 36 40  0  0  0  0  0  0  0  0999 V2000
   11.5714  -26.0384   -4.4368 C   0  0  0  0  0  0
   12.6179  -26.0823   -3.3164 C   0  0  0  0  0  0
   10.4900  -27.1152   -4.2366 C   0  0  0  0  0  0
    9.6228  -26.7801   -3.0870 N   0  0  0  0  0  0
    8.6544  -27.8703   -2.8497 C   0  0  0  0  0  0
    9.3626  -29.2091   -2.7583 C   0  0  0  0  0  0
    8.8518  -30.4111   -3.3344 C   0  0  0  0  0  0
    7.5215  -30.4086   -4.0522 C   0  0  0  0  0  0
    9.6189  -31.6107   -3.2594 C   0  0  0  0  0  0
    9.1191  -32.8239   -3.8491 N   0  0  0  0  0  0
    9.4931  -34.0363   -3.5571 C   0  0  0  0  0  0
   10.5290  -34.2505   -2.6437 O   0  0  0  0  0  0
    8.8447  -35.1785   -4.2472 C   0  0  0  0  0  0
    9.2628  -36.5008   -4.0329 C   0  0  0  0  0  0
    8.6566  -37.5234   -4.6895 N   0  0  0  0  0  0
    7.6321  -37.2954   -5.5530 C   0  0  0  0  0  0
    7.0152  -38.4318   -6.2978 C   0  0  0  0  0  0
    7.2069  -36.0254   -5.7767 N   0  0  0  0  0  0
    7.7835  -34.9715   -5.1441 C   0  0  0  0  0  0
   10.8298  -31.6080   -2.5399 C   0  0  0  0  0  0
   11.2537  -30.4474   -1.9905 N   0  0  0  0  0  0
   12.3588  -30.1937   -1.2771 C   0  0  0  0  0  0
   12.3326  -28.8504   -0.9508 C   0  0  0  0  0  0
   11.2176  -28.2717   -1.4569 N   0  0  0  0  0  0
   10.5878  -29.2891   -2.0838 C   0  0  0  0  0  0
    8.9256  -25.5007   -3.3372 C   0  0  0  0  0  0
    9.9451  -24.3691   -3.4666 C   0  0  0  0  0  0
   10.9377  -24.7103   -4.4950 N   0  0  0  0  0  0
   11.1814  -23.8051   -5.5916 C   0  0  0  0  0  0
   10.2373  -23.0888   -6.0265 O   0  0  0  0  0  0
   12.5648  -23.6448   -6.1927 C   0  0  0  0  0  0
   12.5329  -22.7868   -7.4607 C   0  0  0  0  0  0
   12.9775  -21.3800   -7.0575 C   0  0  0  0  0  0
   13.3956  -21.4396   -5.5915 C   0  0  0  0  0  0
   13.4988  -22.9132   -5.2334 C   0  0  0  0  0  0
   10.8910  -35.1718   -2.4363 H   0  0  0  0  0  0
  1  2  1  0  0  0
  1  3  1  0  0  0
  3  4  1  0  0  0
  4  5  1  0  0  0
  5  6  1  0  0  0
  6  7  2  0  0  0
  7  8  1  0  0  0
  7  9  1  0  0  0
  9 10  1  0  0  0
 10 11  2  0  0  0
 11 12  1  0  0  0
 11 13  1  0  0  0
 13 14  2  0  0  0
 14 15  1  0  0  0
 15 16  2  0  0  0
 16 17  1  0  0  0
 16 18  1  0  0  0
 18 19  2  0  0  0
  9 20  2  0  0  0
 20 21  1  0  0  0
 21 22  1  0  0  0
 22 23  2  0  0  0
 23 24  1  0  0  0
 24 25  2  0  0  0
  4 26  1  0  0  0
 26 27  1  0  0  0
 27 28  1  0  0  0
 28 29  1  0  0  0
 29 30  2  0  0  0
 29 31  1  0  0  0
 31 32  1  0  0  0
 32 33  1  0  0  0
 33 34  1  0  0  0
 34 35  1  0  0  0
 28  1  1  0  0  0
 35 31  1  0  0  0
 25  6  1  0  0  0
 19 13  1  0  0  0
 25 21  1  0  0  0
 12 36  1  0  0  0
M  END
>  <CHROM.0>
-149.61597354,1.57020951,-155.79599833,59.89194913,179.93762528,14.74748855

>  <CHROM.1>
51.38271776,-139.76940777,-159.50281491,-175.79158104,176.06535867,171.90778561
10.25825188,-29.21892201,-4.07246930,0.92169427,-1.11079360,-0.65873234

>  <RI>
2.95534e+07

>  <Rbt.Current_Directory>
/extra/banzai2/j5wagner/CELPP/2016_10_17_rdock_implementation/normal_run/tutorialVideo/tutorial_rdock_implementation/full_week_run/4-docking/5m96/hiResHolo_5aph_docking

>  <Rbt.Executable>
rbdock ($Id: //depot/dev/client3/rdock/2013.1/src/exe/rbdock.cxx#4 $)

>  <Rbt.Library>
libRbt.so (2013.1, Build901 2013/11/27)

>  <Rbt.Parameter_File>
/home/j5wagner/env_00/source/rDock/rDock_2013.1_src//data/scripts/dock.prm

>  <Rbt.Receptor>
/extra/banzai2/j5wagner/CELPP/2016_10_17_rdock_implementation/normal_run/tutorialVideo/tutorial_rdock_implementation/full_week_run/4-docking/5m96/hiResHolo_5aph_tech_prep/rDockGridGenInput.prm

>  <SCORE>
-15.0244

>  <SCORE.INTER>
-8.9913

>  <SCORE.INTER.CONST>
1

>  <SCORE.INTER.POLAR>
0

>  <SCORE.INTER.REPUL>
0.000789617

>  <SCORE.INTER.ROT>
5

>  <SCORE.INTER.VDW>
-19.3953

>  <SCORE.INTER.norm>
-0.256894

>  <SCORE.INTRA>
-0.604423

>  <SCORE.INTRA.DIHEDRAL>
-7.30952

>  <SCORE.INTRA.DIHEDRAL.0>
9.74364

>  <SCORE.INTRA.POLAR>
0

>  <SCORE.INTRA.POLAR.0>
0

>  <SCORE.INTRA.REPUL>
0.121662

>  <SCORE.INTRA.REPUL.0>
0.108387

>  <SCORE.INTRA.VDW>
2.44203

>  <SCORE.INTRA.VDW.0>
-2.87247

>  <SCORE.INTRA.norm>
-0.0172692

>  <SCORE.RESTR>
0.551434

>  <SCORE.RESTR.CAVITY>
0.551434

>  <SCORE.RESTR.norm>
0.0157553

>  <SCORE.SYSTEM>
-5.98007

>  <SCORE.SYSTEM.CONST>
0

>  <SCORE.SYSTEM.DIHEDRAL>
2.35913

>  <SCORE.SYSTEM.POLAR>
-1.85344

>  <SCORE.SYSTEM.VDW>
-0.857953

>  <SCORE.SYSTEM.norm>
-0.170859

>  <SCORE.heavy>
35

>  <SCORE.norm>
-0.429268

$$$$

  rDOCK(R)          3D
libRbt.so/2013.1/901 2013/11/27
 36 40  0  0  0  0  0  0  0  0999 V2000
   10.6484  -25.1917   -5.4632 C   0  0  0  0  0  0
   11.9287  -25.9538   -5.8274 C   0  0  0  0  0  0
    9.6513  -26.0953   -4.7160 C   0  0  0  0  0  0
   10.1408  -26.4035   -3.3553 N   0  0  0  0  0  0
    9.2211  -27.3487   -2.6893 C   0  0  0  0  0  0
    9.8054  -28.7489   -2.6755 C   0  0  0  0  0  0
    9.1254  -29.8911   -3.1956 C   0  0  0  0  0  0
    7.7329  -29.7558   -3.7679 C   0  0  0  0  0  0
    9.7794  -31.1581   -3.2041 C   0  0  0  0  0  0
    9.1077  -32.3123   -3.7389 N   0  0  0  0  0  0
    9.6218  -33.2068   -4.5330 C   0  0  0  0  0  0
   10.9260  -33.0539   -5.0116 O   0  0  0  0  0  0
    8.7873  -34.3551   -4.9646 C   0  0  0  0  0  0
    7.4407  -34.4689   -4.5868 C   0  0  0  0  0  0
    6.7070  -35.5389   -4.9884 N   0  0  0  0  0  0
    7.2496  -36.5106   -5.7684 C   0  0  0  0  0  0
    6.4357  -37.6997   -6.1560 C   0  0  0  0  0  0
    8.5500  -36.4235   -6.1496 N   0  0  0  0  0  0
    9.3224  -35.3730   -5.7713 C   0  0  0  0  0  0
   11.0543  -31.2771   -2.6175 C   0  0  0  0  0  0
   11.6417  -30.1677   -2.1147 N   0  0  0  0  0  0
   12.8350  -30.0268   -1.5225 C   0  0  0  0  0  0
   12.9703  -28.6907   -1.1935 C   0  0  0  0  0  0
   11.8677  -28.0044   -1.5774 N   0  0  0  0  0  0
   11.0819  -28.9511   -2.1352 C   0  0  0  0  0  0
   10.2731  -25.1564   -2.5724 C   0  0  0  0  0  0
   11.3136  -24.2431   -3.2203 C   0  0  0  0  0  0
   10.9684  -24.0196   -4.6311 N   0  0  0  0  0  0
   10.8331  -22.6753   -5.1369 C   0  0  0  0  0  0
   10.4176  -21.7626   -4.3701 O   0  0  0  0  0  0
   11.2421  -22.3180   -6.5532 C   0  0  0  0  0  0
   10.5035  -23.1732   -7.5866 C   0  0  0  0  0  0
    9.3524  -22.3232   -8.1268 C   0  0  0  0  0  0
    9.4904  -20.9322   -7.5155 C   0  0  0  0  0  0
   10.8718  -20.8753   -6.8840 C   0  0  0  0  0  0
   11.5036  -32.2580   -4.7754 H   0  0  0  0  0  0
  1  2  1  0  0  0
  1  3  1  0  0  0
  3  4  1  0  0  0
  4  5  1  0  0  0
  5  6  1  0  0  0
  6  7  2  0  0  0
  7  8  1  0  0  0
  7  9  1  0  0  0
  9 10  1  0  0  0
 10 11  2  0  0  0
 11 12  1  0  0  0
 11 13  1  0  0  0
 13 14  2  0  0  0
 14 15  1  0  0  0
 15 16  2  0  0  0
 16 17  1  0  0  0
 16 18  1  0  0  0
 18 19  2  0  0  0
  9 20  2  0  0  0
 20 21  1  0  0  0
 21 22  1  0  0  0
 22 23  2  0  0  0
 23 24  1  0  0  0
 24 25  2  0  0  0
  4 26  1  0  0  0
 26 27  1  0  0  0
 27 28  1  0  0  0
 28 29  1  0  0  0
 29 30  2  0  0  0
 29 31  1  0  0  0
 31 32  1  0  0  0
 32 33  1  0  0  0
 33 34  1  0  0  0
 34 35  1  0  0  0
 28  1  1  0  0  0
 35 31  1  0  0  0
 25  6  1  0  0  0
 19 13  1  0  0  0
 25 21  1  0  0  0
 12 36  1  0  0  0
M  END
>  <CHROM.0>
-148.15584681,-175.10681000,-169.69909656,-57.71234651,-63.17786572,-7.51439925

>  <CHROM.1>
103.61424541,-125.10580875,135.63306664,-0.72854885,2.91013961,57.10423671
9.97210831,-28.61855973,-4.44001078,1.23297404,-1.00403364,-0.34902709

>  <RI>
2.95534e+07

>  <Rbt.Current_Directory>
/extra/banzai2/j5wagner/CELPP/2016_10_17_rdock_implementation/normal_run/tutorialVideo/tutorial_rdock_implementation/full_week_run/4-docking/5m96/hiResHolo_5aph_docking

>  <Rbt.Executable>
rbdock ($Id: //depot/dev/client3/rdock/2013.1/src/exe/rbdock.cxx#4 $)

>  <Rbt.Library>
libRbt.so (2013.1, Build901 2013/11/27)

>  <Rbt.Parameter_File>
/home/j5wagner/env_00/source/rDock/rDock_2013.1_src//data/scripts/dock.prm

>  <Rbt.Receptor>
/extra/banzai2/j5wagner/CELPP/2016_10_17_rdock_implementation/normal_run/tutorialVideo/tutorial_rdock_implementation/full_week_run/4-docking/5m96/hiResHolo_5aph_tech_prep/rDockGridGenInput.prm

>  <SCORE>
-12.3295

>  <SCORE.INTER>
-9.2988

>  <SCORE.INTER.CONST>
1

>  <SCORE.INTER.POLAR>
0

>  <SCORE.INTER.REPUL>
0

>  <SCORE.INTER.ROT>
5

>  <SCORE.INTER.VDW>
-19.6988

>  <SCORE.INTER.norm>
-0.26568

>  <SCORE.INTRA>
0.111199

>  <SCORE.INTRA.DIHEDRAL>
-2.90432

>  <SCORE.INTRA.DIHEDRAL.0>
9.74364

>  <SCORE.INTRA.POLAR>
0

>  <SCORE.INTRA.POLAR.0>
0

>  <SCORE.INTRA.REPUL>
-0.0122529

>  <SCORE.INTRA.REPUL.0>
0.108387

>  <SCORE.INTRA.VDW>
1.62462

>  <SCORE.INTRA.VDW.0>
-2.87247

>  <SCORE.INTRA.norm>
0.00317712

>  <SCORE.RESTR>
0.367599

>  <SCORE.RESTR.CAVITY>
0.367599

>  <SCORE.RESTR.norm>
0.0105028

>  <SCORE.SYSTEM>
-3.50948

>  <SCORE.SYSTEM.CONST>
0

>  <SCORE.SYSTEM.DIHEDRAL>
1.58495

>  <SCORE.SYSTEM.POLAR>
-1.28022

>  <SCORE.SYSTEM.REPUL>
0.00184667

>  <SCORE.SYSTEM.VDW>
0.0415576

>  <SCORE.SYSTEM.norm>
-0.100271

>  <SCORE.heavy>
35

>  <SCORE.norm>
-0.352271

$$$$
