
 OpenBabel12121610113D
libRbt.so/2013.1/901 2013/11/27
 36 40  0  0  1  0  0  0  0  0999 V2000
    9.4157  -30.8950   -3.3369 C   0  0  1  0  0  0  0  0  0  0  0  0
    9.5022  -30.3785   -4.7785 C   0  0  0  0  0  0  0  0  0  0  0  0
    9.6997  -29.7737   -2.3215 C   0  0  0  0  0  0  0  0  0  0  0  0
    8.5887  -28.7987   -2.2926 N   0  0  0  0  0  0  0  0  0  0  0  0
    8.9212  -27.6801   -1.3865 C   0  0  0  0  0  0  0  0  0  0  0  0
   10.1059  -26.8931   -1.9150 C   0  0  0  0  0  0  0  0  0  0  0  0
   11.3828  -26.8688   -1.2774 C   0  0  0  0  0  0  0  0  0  0  0  0
   11.6058  -27.6217    0.0143 C   0  0  0  0  0  0  0  0  0  0  0  0
   12.4600  -26.1572   -1.8826 C   0  0  0  0  0  0  0  0  0  0  0  0
   13.7543  -26.1384   -1.2549 N   0  0  0  0  0  0  0  0  0  0  0  0
   14.8953  -26.3900   -1.8290 C   0  0  0  0  0  0  0  0  0  0  0  0
   14.9341  -26.7966   -3.1655 O   0  0  0  0  0  0  0  0  0  0  0  0
   16.1425  -26.2937   -1.0311 C   0  0  0  0  0  0  0  0  0  0  0  0
   16.1287  -25.8733    0.3076 C   0  0  0  0  0  0  0  0  0  0  0  0
   17.2892  -25.7840    1.0072 N   0  0  0  0  0  0  0  0  0  0  0  0
   18.4801  -26.1077    0.4378 C   0  0  0  0  0  0  0  0  0  0  0  0
   19.7457  -25.9550    1.2134 C   0  0  0  0  0  0  0  0  0  0  0  0
   18.5210  -26.5192   -0.8555 N   0  0  0  0  0  0  0  0  0  0  0  0
   17.3866  -26.6226   -1.5944 C   0  0  0  0  0  0  0  0  0  0  0  0
   12.2206  -25.4166   -3.0565 C   0  0  0  0  0  0  0  0  0  0  0  0
   10.9846  -25.4525   -3.6037 N   0  0  0  0  0  0  0  0  0  0  0  0
   10.5202  -24.8473   -4.7049 C   0  0  0  0  0  0  0  0  0  0  0  0
    9.1920  -25.2078   -4.8374 C   0  0  0  0  0  0  0  0  0  0  0  0
    8.8314  -26.0313   -3.8245 N   0  0  0  0  0  0  0  0  0  0  0  0
    9.9616  -26.1509   -3.0942 C   0  0  0  0  0  0  0  0  0  0  0  0
    7.3409  -29.4683   -1.8678 C   0  0  0  0  0  0  0  0  0  0  0  0
    6.9572  -30.5458   -2.8819 C   0  0  0  0  0  0  0  0  0  0  0  0
    8.0844  -31.4683   -3.0765 N   0  0  0  0  0  0  0  0  0  0  0  0
    7.8962  -32.8868   -2.8931 C   0  0  0  0  0  0  0  0  0  0  0  0
    7.0555  -33.2968   -2.0452 O   0  0  0  0  0  0  0  0  0  0  0  0
    8.6384  -33.8999   -3.7437 C   0  0  0  0  0  0  0  0  0  0  0  0
    8.3048  -35.3361   -3.3302 C   0  0  0  0  0  0  0  0  0  0  0  0
    7.2640  -35.8550   -4.3235 C   0  0  0  0  0  0  0  0  0  0  0  0
    7.0831  -34.7816   -5.3925 C   0  0  0  0  0  0  0  0  0  0  0  0
    8.2246  -33.7950   -5.2086 C   0  0  0  0  0  0  0  0  0  0  0  0
   15.8007  -26.9532   -3.6629 H   0  0  0  0  0  0  0  0  0  0  0  0
  1  2  1  6  0  0  0
  1  3  1  0  0  0  0
  3  4  1  0  0  0  0
  4  5  1  0  0  0  0
  4 26  1  0  0  0  0
  5  6  1  0  0  0  0
  6  7  2  0  0  0  0
  7  8  1  0  0  0  0
  7  9  1  0  0  0  0
  9 10  1  0  0  0  0
  9 20  2  0  0  0  0
 10 11  2  0  0  0  0
 11 12  1  0  0  0  0
 11 13  1  0  0  0  0
 12 36  1  0  0  0  0
 13 14  2  0  0  0  0
 14 15  1  0  0  0  0
 15 16  2  0  0  0  0
 16 17  1  0  0  0  0
 16 18  1  0  0  0  0
 18 19  2  0  0  0  0
 19 13  1  0  0  0  0
 20 21  1  0  0  0  0
 21 22  1  0  0  0  0
 22 23  2  0  0  0  0
 23 24  1  0  0  0  0
 24 25  2  0  0  0  0
 25  6  1  0  0  0  0
 25 21  1  0  0  0  0
 26 27  1  0  0  0  0
 27 28  1  0  0  0  0
 28 29  1  0  0  0  0
 28  1  1  0  0  0  0
 29 30  2  0  0  0  0
 29 31  1  0  0  0  0
 31 32  1  0  0  0  0
 32 33  1  0  0  0  0
 33 34  1  0  0  0  0
 34 35  1  0  0  0  0
 35 31  1  0  0  0  0
M  END
