
 OpenBabel12121610093D
libRbt.so/2013.1/901 2013/11/27
 36 40  0  0  1  0  0  0  0  0999 V2000
    8.5691  -35.9622   -4.2216 C   0  0  1  0  0  0  0  0  0  0  0  0
    9.0681  -37.3459   -3.7871 C   0  0  0  0  0  0  0  0  0  0  0  0
    8.6071  -34.9602   -3.0539 C   0  0  0  0  0  0  0  0  0  0  0  0
   10.0014  -34.6126   -2.7063 N   0  0  0  0  0  0  0  0  0  0  0  0
   10.0220  -33.7280   -1.5232 C   0  0  0  0  0  0  0  0  0  0  0  0
    9.1057  -32.5358   -1.7263 C   0  0  0  0  0  0  0  0  0  0  0  0
    9.5109  -31.3335   -2.3805 C   0  0  0  0  0  0  0  0  0  0  0  0
   10.9281  -31.1778   -2.8827 C   0  0  0  0  0  0  0  0  0  0  0  0
    8.5621  -30.2898   -2.5891 C   0  0  0  0  0  0  0  0  0  0  0  0
    8.9573  -29.0800   -3.2598 N   0  0  0  0  0  0  0  0  0  0  0  0
    8.6835  -27.8638   -2.8849 C   0  0  0  0  0  0  0  0  0  0  0  0
    7.8681  -27.6390   -1.7722 O   0  0  0  0  0  0  0  0  0  0  0  0
    9.2009  -26.7269   -3.6855 C   0  0  0  0  0  0  0  0  0  0  0  0
    8.6746  -25.4330   -3.5516 C   0  0  0  0  0  0  0  0  0  0  0  0
    9.1620  -24.4159   -4.3081 N   0  0  0  0  0  0  0  0  0  0  0  0
   10.1698  -24.6210   -5.1966 C   0  0  0  0  0  0  0  0  0  0  0  0
   10.6545  -23.4970   -6.0500 C   0  0  0  0  0  0  0  0  0  0  0  0
   10.6982  -25.8632   -5.3442 N   0  0  0  0  0  0  0  0  0  0  0  0
   10.2421  -26.9105   -4.6104 C   0  0  0  0  0  0  0  0  0  0  0  0
    7.2616  -30.4290   -2.0666 C   0  0  0  0  0  0  0  0  0  0  0  0
    6.9388  -31.5782   -1.4313 N   0  0  0  0  0  0  0  0  0  0  0  0
    5.7819  -31.9445   -0.8639 C   0  0  0  0  0  0  0  0  0  0  0  0
    5.9642  -33.2167   -0.3539 C   0  0  0  0  0  0  0  0  0  0  0  0
    7.2269  -33.6392   -0.6012 N   0  0  0  0  0  0  0  0  0  0  0  0
    7.7859  -32.6017   -1.2615 C   0  0  0  0  0  0  0  0  0  0  0  0
   10.6625  -33.9659   -3.8598 C   0  0  0  0  0  0  0  0  0  0  0  0
   10.7297  -34.9410   -5.0351 C   0  0  0  0  0  0  0  0  0  0  0  0
    9.3842  -35.4495   -5.3358 N   0  0  0  0  0  0  0  0  0  0  0  0
    8.8486  -35.3293   -6.6699 C   0  0  0  0  0  0  0  0  0  0  0  0
    9.1824  -34.3449   -7.3863 O   0  0  0  0  0  0  0  0  0  0  0  0
    7.9434  -36.3949   -7.2581 C   0  0  0  0  0  0  0  0  0  0  0  0
    6.5189  -36.2927   -6.7058 C   0  0  0  0  0  0  0  0  0  0  0  0
    5.6842  -35.5633   -7.7597 C   0  0  0  0  0  0  0  0  0  0  0  0
    6.5763  -35.3546   -8.9796 C   0  0  0  0  0  0  0  0  0  0  0  0
    7.8044  -36.2248   -8.7680 C   0  0  0  0  0  0  0  0  0  0  0  0
    7.6695  -26.7118   -1.4202 H   0  0  0  0  0  0  0  0  0  0  0  0
  1  2  1  1  0  0  0
  1  3  1  0  0  0  0
  3  4  1  0  0  0  0
  4  5  1  0  0  0  0
  4 26  1  0  0  0  0
  5  6  1  0  0  0  0
  6  7  2  0  0  0  0
  7  8  1  0  0  0  0
  7  9  1  0  0  0  0
  9 10  1  0  0  0  0
  9 20  2  0  0  0  0
 10 11  2  0  0  0  0
 11 12  1  0  0  0  0
 11 13  1  0  0  0  0
 12 36  1  0  0  0  0
 13 14  2  0  0  0  0
 14 15  1  0  0  0  0
 15 16  2  0  0  0  0
 16 17  1  0  0  0  0
 16 18  1  0  0  0  0
 18 19  2  0  0  0  0
 19 13  1  0  0  0  0
 20 21  1  0  0  0  0
 21 22  1  0  0  0  0
 22 23  2  0  0  0  0
 23 24  1  0  0  0  0
 24 25  2  0  0  0  0
 25  6  1  0  0  0  0
 25 21  1  0  0  0  0
 26 27  1  0  0  0  0
 27 28  1  0  0  0  0
 28 29  1  0  0  0  0
 28  1  1  0  0  0  0
 29 30  2  0  0  0  0
 29 31  1  0  0  0  0
 31 32  1  0  0  0  0
 32 33  1  0  0  0  0
 33 34  1  0  0  0  0
 34 35  1  0  0  0  0
 35 31  1  0  0  0  0
M  END
