
  rDOCK(R)          3D
libRbt.so/2013.1/901 2013/11/27
 28 30  0  0  0  0  0  0  0  0999 V2000
   39.2861   13.9987   85.9754 C   0  0  0  0  0  0
   40.3999   13.2608   85.3429 C   0  0  0  0  0  0
   40.4825   12.0204   85.5507 O   0  0  0  0  0  0
   41.4267   13.9151   84.4958 C   0  0  0  0  0  0
   41.7233   13.3976   83.2293 C   0  0  0  0  0  0
   42.7191   13.9736   82.4069 C   0  0  0  0  0  0
   43.3730   15.1610   82.8550 C   0  0  0  0  0  0
   43.1040   15.6265   84.1607 C   0  0  0  0  0  0
   42.1503   15.0128   84.9667 C   0  0  0  0  0  0
   44.4174   15.8990   82.0037 C   0  0  0  0  0  0
   44.1460   17.4243   82.0037 C   0  0  0  0  0  0
   45.8217   15.6462   82.5986 C   0  0  0  0  0  0
   44.3758   15.4366   80.5261 C   0  0  0  0  0  0
   44.2927   13.9205   80.3984 C   0  0  0  0  0  0
   42.9999   13.3479   81.0316 C   0  0  0  0  0  0
   43.2027   11.8169   81.1558 C   0  0  0  0  0  0
   41.7934   13.6137   80.1022 C   0  0  0  0  0  0
   39.0754   15.3077   85.7720 C   0  0  0  0  0  0
   37.9638   16.0726   86.3890 C   0  0  0  0  0  0
   37.0239   15.4829   87.2560 C   0  0  0  0  0  0
   35.9884   16.2452   87.8056 C   0  0  0  0  0  0
   35.8659   17.6116   87.4999 C   0  0  0  0  0  0
   34.7705   18.4318   88.0724 C   0  0  0  0  0  0
   33.9051   17.8908   88.8112 O   0  0  0  0  0  0
   34.6564   19.7956   87.8045 O   0  0  0  0  0  0
   36.7880   18.1917   86.6126 C   0  0  0  0  0  0
   37.8229   17.4302   86.0635 C   0  0  0  0  0  0
   35.3187   20.2950   87.2253 H   0  0  0  0  0  0
  1  2  1  0  0  0
  2  3  2  0  0  0
  2  4  1  0  0  0
  4  5  2  0  0  0
  5  6  1  0  0  0
  6  7  2  0  0  0
  7  8  1  0  0  0
  8  9  2  0  0  0
  7 10  1  0  0  0
 10 11  1  0  0  0
 10 12  1  0  0  0
 10 13  1  0  0  0
 13 14  1  0  0  0
 14 15  1  0  0  0
 15 16  1  0  0  0
 15 17  1  0  0  0
  1 18  2  0  0  0
 18 19  1  0  0  0
 19 20  2  0  0  0
 20 21  1  0  0  0
 21 22  2  0  0  0
 22 23  1  0  0  0
 23 24  2  0  0  0
 23 25  1  0  0  0
 22 26  1  0  0  0
 26 27  2  0  0  0
  9  4  1  0  0  0
 27 19  1  0  0  0
 15  6  1  0  0  0
 25 28  1  0  0  0
M  END
>  <CHROM.0>
-159.38022539,-58.37398564,-56.42949651,-59.33598486,62.41535388,70.48908279

>  <CHROM.1>
-177.07289147,-129.16975023,0.19750471,-2.39820198,-1.17568200,40.33717466
15.42849996,84.46810627,2.83073290,0.63851319,-0.00929644

>  <RI>
0

>  <Rbt.Current_Directory>
/extra/banzai2/j5wagner/CELPP/2016_10_17_rdock_implementation/normal_run/tutorialVideo/tutorial_rdock_implementation/full_week_run/4-docking/1fcz/SMCSS_2lbd_docking

>  <Rbt.Executable>
rbdock ($Id: //depot/dev/client3/rdock/2013.1/src/exe/rbdock.cxx#4 $)

>  <Rbt.Library>
libRbt.so (2013.1, Build901 2013/11/27)

>  <Rbt.Parameter_File>
/home/j5wagner/env_00/source/rDock/rDock_2013.1_src//data/scripts/dock.prm

>  <Rbt.Receptor>
/extra/banzai2/j5wagner/CELPP/2016_10_17_rdock_implementation/normal_run/tutorialVideo/tutorial_rdock_implementation/full_week_run/4-docking/1fcz/SMCSS_2lbd_tech_prep/rDockGridGenInput.prm

>  <SCORE>
-41.6065

>  <SCORE.INTER>
-33.1749

>  <SCORE.INTER.CONST>
1

>  <SCORE.INTER.POLAR>
-2.67111

>  <SCORE.INTER.REPUL>
0

>  <SCORE.INTER.ROT>
4

>  <SCORE.INTER.VDW>
-33.4931

>  <SCORE.INTER.norm>
-1.2287

>  <SCORE.INTRA>
-1.21982

>  <SCORE.INTRA.DIHEDRAL>
-2.60502

>  <SCORE.INTRA.DIHEDRAL.0>
10.7811

>  <SCORE.INTRA.POLAR>
0

>  <SCORE.INTRA.POLAR.0>
0

>  <SCORE.INTRA.REPUL>
0

>  <SCORE.INTRA.REPUL.0>
0

>  <SCORE.INTRA.VDW>
0.082688

>  <SCORE.INTRA.VDW.0>
-0.812999

>  <SCORE.INTRA.norm>
-0.0451786

>  <SCORE.RESTR>
0

>  <SCORE.RESTR.CAVITY>
0

>  <SCORE.RESTR.norm>
0

>  <SCORE.SYSTEM>
-7.2118

>  <SCORE.SYSTEM.CONST>
0

>  <SCORE.SYSTEM.DIHEDRAL>
1.27485

>  <SCORE.SYSTEM.POLAR>
-1.66141

>  <SCORE.SYSTEM.VDW>
-2.20043

>  <SCORE.SYSTEM.norm>
-0.267104

>  <SCORE.heavy>
27

>  <SCORE.norm>
-1.54098

$$$$

  rDOCK(R)          3D
libRbt.so/2013.1/901 2013/11/27
 28 30  0  0  0  0  0  0  0  0999 V2000
   38.7330   14.1939   85.1354 C   0  0  0  0  0  0
   39.7543   13.3984   84.4216 C   0  0  0  0  0  0
   39.5848   12.1521   84.3410 O   0  0  0  0  0  0
   40.9693   13.9967   83.8169 C   0  0  0  0  0  0
   41.4755   13.4896   82.6143 C   0  0  0  0  0  0
   42.6501   14.0114   82.0247 C   0  0  0  0  0  0
   43.2797   15.1373   82.6365 C   0  0  0  0  0  0
   42.7894   15.5898   83.8809 C   0  0  0  0  0  0
   41.6567   15.0276   84.4612 C   0  0  0  0  0  0
   44.5184   15.8179   82.0342 C   0  0  0  0  0  0
   44.3540   17.3584   82.0386 C   0  0  0  0  0  0
   45.7574   15.4500   82.8822 C   0  0  0  0  0  0
   44.7390   15.3952   80.5606 C   0  0  0  0  0  0
   44.5826   13.8925   80.3621 C   0  0  0  0  0  0
   43.1551   13.4001   80.7083 C   0  0  0  0  0  0
   43.2275   11.8559   80.8120 C   0  0  0  0  0  0
   42.1764   13.7746   79.5717 C   0  0  0  0  0  0
   38.7298   15.5352   85.1379 C   0  0  0  0  0  0
   37.7154   16.3590   85.8407 C   0  0  0  0  0  0
   37.6836   17.7640   85.7540 C   0  0  0  0  0  0
   36.7117   18.4963   86.4429 C   0  0  0  0  0  0
   35.7523   17.8434   87.2357 C   0  0  0  0  0  0
   34.7177   18.6073   87.9750 C   0  0  0  0  0  0
   33.8974   17.9973   88.7116 O   0  0  0  0  0  0
   34.6117   19.9937   87.8687 O   0  0  0  0  0  0
   35.8029   16.4434   87.3435 C   0  0  0  0  0  0
   36.7739   15.7114   86.6550 C   0  0  0  0  0  0
   35.2689   20.5522   87.3399 H   0  0  0  0  0  0
  1  2  1  0  0  0
  2  3  2  0  0  0
  2  4  1  0  0  0
  4  5  2  0  0  0
  5  6  1  0  0  0
  6  7  2  0  0  0
  7  8  1  0  0  0
  8  9  2  0  0  0
  7 10  1  0  0  0
 10 11  1  0  0  0
 10 12  1  0  0  0
 10 13  1  0  0  0
 13 14  1  0  0  0
 14 15  1  0  0  0
 15 16  1  0  0  0
 15 17  1  0  0  0
  1 18  2  0  0  0
 18 19  1  0  0  0
 19 20  2  0  0  0
 20 21  1  0  0  0
 21 22  2  0  0  0
 22 23  1  0  0  0
 23 24  2  0  0  0
 23 25  1  0  0  0
 22 26  1  0  0  0
 26 27  2  0  0  0
  9  4  1  0  0  0
 27 19  1  0  0  0
 15  6  1  0  0  0
 25 28  1  0  0  0
M  END
>  <CHROM.0>
-163.98214317,-59.14737638,-57.01407394,-58.56216503,62.85319599,-59.45381270

>  <CHROM.1>
-171.57745402,-143.93969651,-175.65959165,-177.74209472,-4.46723437,40.20245060
15.52894354,84.11891423,2.65215942,0.52209960,0.28202364

>  <RI>
0

>  <Rbt.Current_Directory>
/extra/banzai2/j5wagner/CELPP/2016_10_17_rdock_implementation/normal_run/tutorialVideo/tutorial_rdock_implementation/full_week_run/4-docking/1fcz/SMCSS_2lbd_docking

>  <Rbt.Executable>
rbdock ($Id: //depot/dev/client3/rdock/2013.1/src/exe/rbdock.cxx#4 $)

>  <Rbt.Library>
libRbt.so (2013.1, Build901 2013/11/27)

>  <Rbt.Parameter_File>
/home/j5wagner/env_00/source/rDock/rDock_2013.1_src//data/scripts/dock.prm

>  <Rbt.Receptor>
/extra/banzai2/j5wagner/CELPP/2016_10_17_rdock_implementation/normal_run/tutorialVideo/tutorial_rdock_implementation/full_week_run/4-docking/1fcz/SMCSS_2lbd_tech_prep/rDockGridGenInput.prm

>  <SCORE>
-40.457

>  <SCORE.INTER>
-32.2891

>  <SCORE.INTER.CONST>
1

>  <SCORE.INTER.POLAR>
-2.72938

>  <SCORE.INTER.REPUL>
0

>  <SCORE.INTER.ROT>
4

>  <SCORE.INTER.VDW>
-32.4092

>  <SCORE.INTER.norm>
-1.19589

>  <SCORE.INTRA>
-1.99278

>  <SCORE.INTRA.DIHEDRAL>
-5.42993

>  <SCORE.INTRA.DIHEDRAL.0>
10.7811

>  <SCORE.INTRA.POLAR>
0

>  <SCORE.INTRA.POLAR.0>
0

>  <SCORE.INTRA.REPUL>
0

>  <SCORE.INTRA.REPUL.0>
0

>  <SCORE.INTRA.VDW>
0.722185

>  <SCORE.INTRA.VDW.0>
-0.812999

>  <SCORE.INTRA.norm>
-0.0738067

>  <SCORE.RESTR>
0

>  <SCORE.RESTR.CAVITY>
0

>  <SCORE.RESTR.norm>
0

>  <SCORE.SYSTEM>
-6.17507

>  <SCORE.SYSTEM.CONST>
0

>  <SCORE.SYSTEM.DIHEDRAL>
0.513218

>  <SCORE.SYSTEM.POLAR>
-1.63499

>  <SCORE.SYSTEM.REPUL>
0.155678

>  <SCORE.SYSTEM.VDW>
-1.65109

>  <SCORE.SYSTEM.norm>
-0.228706

>  <SCORE.heavy>
27

>  <SCORE.norm>
-1.49841

$$$$

  rDOCK(R)          3D
libRbt.so/2013.1/901 2013/11/27
 28 30  0  0  0  0  0  0  0  0999 V2000
   38.8098   14.1641   85.0658 C   0  0  0  0  0  0
   39.8206   13.3634   84.3430 C   0  0  0  0  0  0
   39.6342   12.1205   84.2476 O   0  0  0  0  0  0
   41.0439   13.9523   83.7459 C   0  0  0  0  0  0
   41.5820   13.4093   82.5732 C   0  0  0  0  0  0
   42.7652   13.9220   81.9928 C   0  0  0  0  0  0
   43.3708   15.0740   82.5798 C   0  0  0  0  0  0
   42.8481   15.5638   83.7965 C   0  0  0  0  0  0
   41.7072   15.0110   84.3699 C   0  0  0  0  0  0
   44.6170   15.7454   81.9828 C   0  0  0  0  0  0
   44.4392   17.2836   81.9307 C   0  0  0  0  0  0
   45.8394   15.4184   82.8708 C   0  0  0  0  0  0
   44.8752   15.2749   80.5299 C   0  0  0  0  0  0
   44.7364   13.7649   80.3795 C   0  0  0  0  0  0
   43.3058   13.2710   80.7099 C   0  0  0  0  0  0
   43.3892   11.7320   80.8681 C   0  0  0  0  0  0
   42.3502   13.5973   79.5392 C   0  0  0  0  0  0
   38.8207   15.5054   85.0785 C   0  0  0  0  0  0
   37.8171   16.3344   85.7905 C   0  0  0  0  0  0
   37.7618   17.7358   85.6660 C   0  0  0  0  0  0
   36.8015   18.4736   86.3653 C   0  0  0  0  0  0
   35.8776   17.8300   87.2063 C   0  0  0  0  0  0
   34.8558   18.6000   87.9571 C   0  0  0  0  0  0
   34.8064   19.8534   87.8393 O   0  0  0  0  0  0
   33.9469   17.9767   88.8114 O   0  0  0  0  0  0
   35.9523   16.4344   87.3511 C   0  0  0  0  0  0
   36.9116   15.6970   86.6523 C   0  0  0  0  0  0
   33.9716   16.9838   89.0038 H   0  0  0  0  0  0
  1  2  1  0  0  0
  2  3  2  0  0  0
  2  4  1  0  0  0
  4  5  2  0  0  0
  5  6  1  0  0  0
  6  7  2  0  0  0
  7  8  1  0  0  0
  8  9  2  0  0  0
  7 10  1  0  0  0
 10 11  1  0  0  0
 10 12  1  0  0  0
 10 13  1  0  0  0
 13 14  1  0  0  0
 14 15  1  0  0  0
 15 16  1  0  0  0
 15 17  1  0  0  0
  1 18  2  0  0  0
 18 19  1  0  0  0
 19 20  2  0  0  0
 20 21  1  0  0  0
 21 22  2  0  0  0
 22 23  1  0  0  0
 23 24  2  0  0  0
 23 25  1  0  0  0
 22 26  1  0  0  0
 26 27  2  0  0  0
  9  4  1  0  0  0
 27 19  1  0  0  0
 15  6  1  0  0  0
 25 28  1  0  0  0
M  END
>  <CHROM.0>
-161.43675720,62.24487669,-58.13176524,-178.96626611,69.57950214,170.81076020

>  <CHROM.1>
-171.21910621,-147.14740723,-172.67014866,0.27933529,3.66937376,40.30586001
15.45892118,84.08707105,2.64689903,0.52068684,0.29073394

>  <RI>
0

>  <Rbt.Current_Directory>
/extra/banzai2/j5wagner/CELPP/2016_10_17_rdock_implementation/normal_run/tutorialVideo/tutorial_rdock_implementation/full_week_run/4-docking/1fcz/SMCSS_2lbd_docking

>  <Rbt.Executable>
rbdock ($Id: //depot/dev/client3/rdock/2013.1/src/exe/rbdock.cxx#4 $)

>  <Rbt.Library>
libRbt.so (2013.1, Build901 2013/11/27)

>  <Rbt.Parameter_File>
/home/j5wagner/env_00/source/rDock/rDock_2013.1_src//data/scripts/dock.prm

>  <Rbt.Receptor>
/extra/banzai2/j5wagner/CELPP/2016_10_17_rdock_implementation/normal_run/tutorialVideo/tutorial_rdock_implementation/full_week_run/4-docking/1fcz/SMCSS_2lbd_tech_prep/rDockGridGenInput.prm

>  <SCORE>
-40.3235

>  <SCORE.INTER>
-31.201

>  <SCORE.INTER.CONST>
1

>  <SCORE.INTER.POLAR>
-2.37873

>  <SCORE.INTER.REPUL>
0

>  <SCORE.INTER.ROT>
4

>  <SCORE.INTER.VDW>
-32.5134

>  <SCORE.INTER.norm>
-1.15559

>  <SCORE.INTRA>
-2.13759

>  <SCORE.INTRA.DIHEDRAL>
-5.95176

>  <SCORE.INTRA.DIHEDRAL.0>
10.7811

>  <SCORE.INTRA.POLAR>
0

>  <SCORE.INTRA.POLAR.0>
0

>  <SCORE.INTRA.REPUL>
0

>  <SCORE.INTRA.REPUL.0>
0

>  <SCORE.INTRA.VDW>
0.838295

>  <SCORE.INTRA.VDW.0>
-0.812999

>  <SCORE.INTRA.norm>
-0.0791699

>  <SCORE.RESTR>
0

>  <SCORE.RESTR.CAVITY>
0

>  <SCORE.RESTR.norm>
0

>  <SCORE.SYSTEM>
-6.98489

>  <SCORE.SYSTEM.CONST>
0

>  <SCORE.SYSTEM.DIHEDRAL>
1.42818

>  <SCORE.SYSTEM.POLAR>
-1.64972

>  <SCORE.SYSTEM.VDW>
-2.08992

>  <SCORE.SYSTEM.norm>
-0.2587

>  <SCORE.heavy>
27

>  <SCORE.norm>
-1.49346

$$$$

  rDOCK(R)          3D
libRbt.so/2013.1/901 2013/11/27
 28 30  0  0  0  0  0  0  0  0999 V2000
   38.8086   13.9592   85.3322 C   0  0  0  0  0  0
   39.7873   13.1968   84.5284 C   0  0  0  0  0  0
   39.6014   11.9582   84.3873 O   0  0  0  0  0  0
   40.9788   13.8184   83.9010 C   0  0  0  0  0  0
   41.4861   13.3059   82.7011 C   0  0  0  0  0  0
   42.6396   13.8502   82.0904 C   0  0  0  0  0  0
   43.2443   15.0027   82.6772 C   0  0  0  0  0  0
   42.7549   15.4616   83.9197 C   0  0  0  0  0  0
   41.6442   14.8780   84.5212 C   0  0  0  0  0  0
   44.4573   15.7072   82.0507 C   0  0  0  0  0  0
   44.2505   17.2426   82.0324 C   0  0  0  0  0  0
   45.7149   15.3872   82.8907 C   0  0  0  0  0  0
   44.6740   15.2670   80.5816 C   0  0  0  0  0  0
   44.5570   13.7576   80.4087 C   0  0  0  0  0  0
   43.1475   13.2318   80.7783 C   0  0  0  0  0  0
   43.2635   11.6921   80.9057 C   0  0  0  0  0  0
   42.1468   13.5609   79.6467 C   0  0  0  0  0  0
   38.7967   15.2997   85.3799 C   0  0  0  0  0  0
   37.8240   16.0908   86.1733 C   0  0  0  0  0  0
   36.8381   15.4940   86.9823 C   0  0  0  0  0  0
   35.9383   16.2840   87.7047 C   0  0  0  0  0  0
   36.0003   17.6862   87.6335 C   0  0  0  0  0  0
   35.0502   18.5368   88.3913 C   0  0  0  0  0  0
   33.9635   18.0481   88.8008 O   0  0  0  0  0  0
   35.3159   19.8800   88.6554 O   0  0  0  0  0  0
   36.9667   18.2795   86.8038 C   0  0  0  0  0  0
   37.8660   17.4904   86.0820 C   0  0  0  0  0  0
   36.1699   20.3354   88.3608 H   0  0  0  0  0  0
  1  2  1  0  0  0
  2  3  2  0  0  0
  2  4  1  0  0  0
  4  5  2  0  0  0
  5  6  1  0  0  0
  6  7  2  0  0  0
  7  8  1  0  0  0
  8  9  2  0  0  0
  7 10  1  0  0  0
 10 11  1  0  0  0
 10 12  1  0  0  0
 10 13  1  0  0  0
 13 14  1  0  0  0
 14 15  1  0  0  0
 15 16  1  0  0  0
 15 17  1  0  0  0
  1 18  2  0  0  0
 18 19  1  0  0  0
 19 20  2  0  0  0
 20 21  1  0  0  0
 21 22  2  0  0  0
 22 23  1  0  0  0
 23 24  2  0  0  0
 23 25  1  0  0  0
 22 26  1  0  0  0
 26 27  2  0  0  0
  9  4  1  0  0  0
 27 19  1  0  0  0
 15  6  1  0  0  0
 25 28  1  0  0  0
M  END
>  <CHROM.0>
-160.82663380,-57.23494032,-58.52931586,-57.28014571,61.03549554,174.59762840

>  <CHROM.1>
-169.70858083,-148.97916153,1.69061437,-19.88002088,-1.09968031,40.27753754
15.37107628,84.29478123,2.61320503,0.54882037,0.32737324

>  <RI>
0

>  <Rbt.Current_Directory>
/extra/banzai2/j5wagner/CELPP/2016_10_17_rdock_implementation/normal_run/tutorialVideo/tutorial_rdock_implementation/full_week_run/4-docking/1fcz/SMCSS_2lbd_docking

>  <Rbt.Executable>
rbdock ($Id: //depot/dev/client3/rdock/2013.1/src/exe/rbdock.cxx#4 $)

>  <Rbt.Library>
libRbt.so (2013.1, Build901 2013/11/27)

>  <Rbt.Parameter_File>
/home/j5wagner/env_00/source/rDock/rDock_2013.1_src//data/scripts/dock.prm

>  <Rbt.Receptor>
/extra/banzai2/j5wagner/CELPP/2016_10_17_rdock_implementation/normal_run/tutorialVideo/tutorial_rdock_implementation/full_week_run/4-docking/1fcz/SMCSS_2lbd_tech_prep/rDockGridGenInput.prm

>  <SCORE>
-40.1778

>  <SCORE.INTER>
-31.476

>  <SCORE.INTER.CONST>
1

>  <SCORE.INTER.POLAR>
-2.25751

>  <SCORE.INTER.REPUL>
0

>  <SCORE.INTER.ROT>
4

>  <SCORE.INTER.VDW>
-33.2005

>  <SCORE.INTER.norm>
-1.16578

>  <SCORE.INTRA>
-2.01795

>  <SCORE.INTRA.DIHEDRAL>
-5.05408

>  <SCORE.INTRA.DIHEDRAL.0>
10.7811

>  <SCORE.INTRA.POLAR>
0

>  <SCORE.INTRA.POLAR.0>
0

>  <SCORE.INTRA.REPUL>
0

>  <SCORE.INTRA.REPUL.0>
0

>  <SCORE.INTRA.VDW>
0.509091

>  <SCORE.INTRA.VDW.0>
-0.812999

>  <SCORE.INTRA.norm>
-0.0747388

>  <SCORE.RESTR>
0

>  <SCORE.RESTR.CAVITY>
0

>  <SCORE.RESTR.norm>
0

>  <SCORE.SYSTEM>
-6.68384

>  <SCORE.SYSTEM.CONST>
0

>  <SCORE.SYSTEM.DIHEDRAL>
0.7704

>  <SCORE.SYSTEM.POLAR>
-1.65332

>  <SCORE.SYSTEM.VDW>
-1.44774

>  <SCORE.SYSTEM.norm>
-0.24755

>  <SCORE.heavy>
27

>  <SCORE.norm>
-1.48807

$$$$

  rDOCK(R)          3D
libRbt.so/2013.1/901 2013/11/27
 28 30  0  0  0  0  0  0  0  0999 V2000
   38.9260   13.9972   85.1734 C   0  0  0  0  0  0
   39.9487   13.2339   84.4271 C   0  0  0  0  0  0
   39.8011   11.9862   84.3276 O   0  0  0  0  0  0
   41.1408   13.8657   83.8111 C   0  0  0  0  0  0
   41.6429   13.3797   82.5981 C   0  0  0  0  0  0
   42.7967   13.9340   81.9971 C   0  0  0  0  0  0
   43.4072   15.0703   82.6090 C   0  0  0  0  0  0
   42.9228   15.5017   83.8632 C   0  0  0  0  0  0
   41.8117   14.9082   84.4541 C   0  0  0  0  0  0
   44.6211   15.7849   81.9957 C   0  0  0  0  0  0
   44.4198   17.3209   82.0140 C   0  0  0  0  0  0
   45.8797   15.4408   82.8245 C   0  0  0  0  0  0
   44.8321   15.3783   80.5162 C   0  0  0  0  0  0
   44.7092   13.8738   80.3083 C   0  0  0  0  0  0
   43.2987   13.3446   80.6695 C   0  0  0  0  0  0
   43.4095   11.8019   80.7606 C   0  0  0  0  0  0
   42.2962   13.7037   79.5487 C   0  0  0  0  0  0
   38.8890   15.3380   85.1878 C   0  0  0  0  0  0
   37.8723   16.1298   85.9231 C   0  0  0  0  0  0
   36.9179   15.5398   86.7738 C   0  0  0  0  0  0
   35.9742   16.3293   87.4383 C   0  0  0  0  0  0
   35.9599   17.7241   87.2664 C   0  0  0  0  0  0
   34.9625   18.5738   87.9619 C   0  0  0  0  0  0
   34.9966   19.8248   87.8156 O   0  0  0  0  0  0
   33.9859   18.0288   88.7948 O   0  0  0  0  0  0
   36.8950   18.3081   86.3954 C   0  0  0  0  0  0
   37.8382   17.5194   85.7315 C   0  0  0  0  0  0
   33.9659   17.0482   89.0431 H   0  0  0  0  0  0
  1  2  1  0  0  0
  2  3  2  0  0  0
  2  4  1  0  0  0
  4  5  2  0  0  0
  5  6  1  0  0  0
  6  7  2  0  0  0
  7  8  1  0  0  0
  8  9  2  0  0  0
  7 10  1  0  0  0
 10 11  1  0  0  0
 10 12  1  0  0  0
 10 13  1  0  0  0
 13 14  1  0  0  0
 14 15  1  0  0  0
 15 16  1  0  0  0
 15 17  1  0  0  0
  1 18  2  0  0  0
 18 19  1  0  0  0
 19 20  2  0  0  0
 20 21  1  0  0  0
 21 22  2  0  0  0
 22 23  1  0  0  0
 23 24  2  0  0  0
 23 25  1  0  0  0
 22 26  1  0  0  0
 26 27  2  0  0  0
  9  4  1  0  0  0
 27 19  1  0  0  0
 15  6  1  0  0  0
 25 28  1  0  0  0
M  END
>  <CHROM.0>
-161.29144795,-175.46239657,-54.31305729,-57.68690767,68.99441943,70.91294942

>  <CHROM.1>
-170.83160730,-144.65165964,5.78603794,178.14315404,6.54780454,40.36015101
15.41578332,84.11983945,2.66606916,0.54208020,0.26825485

>  <RI>
0

>  <Rbt.Current_Directory>
/extra/banzai2/j5wagner/CELPP/2016_10_17_rdock_implementation/normal_run/tutorialVideo/tutorial_rdock_implementation/full_week_run/4-docking/1fcz/SMCSS_2lbd_docking

>  <Rbt.Executable>
rbdock ($Id: //depot/dev/client3/rdock/2013.1/src/exe/rbdock.cxx#4 $)

>  <Rbt.Library>
libRbt.so (2013.1, Build901 2013/11/27)

>  <Rbt.Parameter_File>
/home/j5wagner/env_00/source/rDock/rDock_2013.1_src//data/scripts/dock.prm

>  <Rbt.Receptor>
/extra/banzai2/j5wagner/CELPP/2016_10_17_rdock_implementation/normal_run/tutorialVideo/tutorial_rdock_implementation/full_week_run/4-docking/1fcz/SMCSS_2lbd_tech_prep/rDockGridGenInput.prm

>  <SCORE>
-40.0715

>  <SCORE.INTER>
-30.6391

>  <SCORE.INTER.CONST>
1

>  <SCORE.INTER.POLAR>
-2.25346

>  <SCORE.INTER.REPUL>
0

>  <SCORE.INTER.ROT>
4

>  <SCORE.INTER.VDW>
-32.3773

>  <SCORE.INTER.norm>
-1.13478

>  <SCORE.INTRA>
-2.16138

>  <SCORE.INTRA.DIHEDRAL>
-5.24727

>  <SCORE.INTRA.DIHEDRAL.0>
10.7811

>  <SCORE.INTRA.POLAR>
0

>  <SCORE.INTRA.POLAR.0>
0

>  <SCORE.INTRA.REPUL>
0

>  <SCORE.INTRA.REPUL.0>
0

>  <SCORE.INTRA.VDW>
0.462251

>  <SCORE.INTRA.VDW.0>
-0.812999

>  <SCORE.INTRA.norm>
-0.0800512

>  <SCORE.RESTR>
0

>  <SCORE.RESTR.CAVITY>
0

>  <SCORE.RESTR.norm>
0

>  <SCORE.SYSTEM>
-7.27105

>  <SCORE.SYSTEM.CONST>
0

>  <SCORE.SYSTEM.DIHEDRAL>
1.69439

>  <SCORE.SYSTEM.POLAR>
-1.65058

>  <SCORE.SYSTEM.VDW>
-2.50629

>  <SCORE.SYSTEM.norm>
-0.269298

>  <SCORE.heavy>
27

>  <SCORE.norm>
-1.48413

$$$$

  rDOCK(R)          3D
libRbt.so/2013.1/901 2013/11/27
 28 30  0  0  0  0  0  0  0  0999 V2000
   38.9073   14.1450   85.2257 C   0  0  0  0  0  0
   39.9369   13.3356   84.5399 C   0  0  0  0  0  0
   39.7954   12.0833   84.5285 O   0  0  0  0  0  0
   41.1290   13.9279   83.8858 C   0  0  0  0  0  0
   41.6174   13.3814   82.6931 C   0  0  0  0  0  0
   42.7707   13.8972   82.0579 C   0  0  0  0  0  0
   43.3952   15.0558   82.6111 C   0  0  0  0  0  0
   42.9245   15.5495   83.8474 C   0  0  0  0  0  0
   41.8134   14.9936   84.4740 C   0  0  0  0  0  0
   44.6098   15.7307   81.9557 C   0  0  0  0  0  0
   44.4210   17.2675   81.9034 C   0  0  0  0  0  0
   45.8723   15.4152   82.7900 C   0  0  0  0  0  0
   44.8056   15.2535   80.4953 C   0  0  0  0  0  0
   44.6689   13.7420   80.3592 C   0  0  0  0  0  0
   43.2572   13.2422   80.7556 C   0  0  0  0  0  0
   43.3564   11.7045   80.9180 C   0  0  0  0  0  0
   42.2486   13.5567   79.6269 C   0  0  0  0  0  0
   38.8885   15.4854   85.1786 C   0  0  0  0  0  0
   37.8655   16.3227   85.8523 C   0  0  0  0  0  0
   37.8165   17.7230   85.7130 C   0  0  0  0  0  0
   36.8371   18.4689   86.3762 C   0  0  0  0  0  0
   35.8872   17.8348   87.1952 C   0  0  0  0  0  0
   34.8448   18.6135   87.9077 C   0  0  0  0  0  0
   34.7760   19.8609   87.7449 O   0  0  0  0  0  0
   33.9371   18.0055   88.7742 O   0  0  0  0  0  0
   35.9549   16.4405   87.3552 C   0  0  0  0  0  0
   36.9333   15.6949   86.6925 C   0  0  0  0  0  0
   33.9947   17.0274   89.0262 H   0  0  0  0  0  0
  1  2  1  0  0  0
  2  3  2  0  0  0
  2  4  1  0  0  0
  4  5  2  0  0  0
  5  6  1  0  0  0
  6  7  2  0  0  0
  7  8  1  0  0  0
  8  9  2  0  0  0
  7 10  1  0  0  0
 10 11  1  0  0  0
 10 12  1  0  0  0
 10 13  1  0  0  0
 13 14  1  0  0  0
 14 15  1  0  0  0
 15 16  1  0  0  0
 15 17  1  0  0  0
  1 18  2  0  0  0
 18 19  1  0  0  0
 19 20  2  0  0  0
 20 21  1  0  0  0
 21 22  2  0  0  0
 22 23  1  0  0  0
 23 24  2  0  0  0
 23 25  1  0  0  0
 22 26  1  0  0  0
 26 27  2  0  0  0
  9  4  1  0  0  0
 27 19  1  0  0  0
 15  6  1  0  0  0
 25 28  1  0  0  0
M  END
>  <CHROM.0>
-160.93906572,63.87910945,63.48110704,-57.99456149,69.84729681,172.94091148

>  <CHROM.1>
-172.94443980,-142.93263880,-175.61456324,2.41894600,5.77372092,40.32625314
15.44525611,84.13071003,2.67204065,0.54197014,0.23629278

>  <RI>
0

>  <Rbt.Current_Directory>
/extra/banzai2/j5wagner/CELPP/2016_10_17_rdock_implementation/normal_run/tutorialVideo/tutorial_rdock_implementation/full_week_run/4-docking/1fcz/SMCSS_2lbd_docking

>  <Rbt.Executable>
rbdock ($Id: //depot/dev/client3/rdock/2013.1/src/exe/rbdock.cxx#4 $)

>  <Rbt.Library>
libRbt.so (2013.1, Build901 2013/11/27)

>  <Rbt.Parameter_File>
/home/j5wagner/env_00/source/rDock/rDock_2013.1_src//data/scripts/dock.prm

>  <Rbt.Receptor>
/extra/banzai2/j5wagner/CELPP/2016_10_17_rdock_implementation/normal_run/tutorialVideo/tutorial_rdock_implementation/full_week_run/4-docking/1fcz/SMCSS_2lbd_tech_prep/rDockGridGenInput.prm

>  <SCORE>
-39.8779

>  <SCORE.INTER>
-31.3005

>  <SCORE.INTER.CONST>
1

>  <SCORE.INTER.POLAR>
-2.39821

>  <SCORE.INTER.REPUL>
0

>  <SCORE.INTER.ROT>
4

>  <SCORE.INTER.VDW>
-32.5466

>  <SCORE.INTER.norm>
-1.15928

>  <SCORE.INTRA>
-1.85074

>  <SCORE.INTRA.DIHEDRAL>
-5.13497

>  <SCORE.INTRA.DIHEDRAL.0>
10.7811

>  <SCORE.INTRA.POLAR>
0

>  <SCORE.INTRA.POLAR.0>
0

>  <SCORE.INTRA.REPUL>
0

>  <SCORE.INTRA.REPUL.0>
0

>  <SCORE.INTRA.VDW>
0.71675

>  <SCORE.INTRA.VDW.0>
-0.812999

>  <SCORE.INTRA.norm>
-0.0685458

>  <SCORE.RESTR>
0

>  <SCORE.RESTR.CAVITY>
0

>  <SCORE.RESTR.norm>
0

>  <SCORE.SYSTEM>
-6.72663

>  <SCORE.SYSTEM.CONST>
0

>  <SCORE.SYSTEM.DIHEDRAL>
1.37851

>  <SCORE.SYSTEM.POLAR>
-1.65266

>  <SCORE.SYSTEM.VDW>
-1.79684

>  <SCORE.SYSTEM.norm>
-0.249134

>  <SCORE.heavy>
27

>  <SCORE.norm>
-1.47696

$$$$

  rDOCK(R)          3D
libRbt.so/2013.1/901 2013/11/27
 28 30  0  0  0  0  0  0  0  0999 V2000
   39.1721   13.9539   86.0905 C   0  0  0  0  0  0
   40.2852   13.2525   85.4164 C   0  0  0  0  0  0
   40.3845   12.0064   85.5777 O   0  0  0  0  0  0
   41.2927   13.9491   84.5800 C   0  0  0  0  0  0
   41.6287   13.4410   83.3196 C   0  0  0  0  0  0
   42.6083   14.0581   82.5077 C   0  0  0  0  0  0
   43.2026   15.2752   82.9594 C   0  0  0  0  0  0
   42.8961   15.7327   84.2595 C   0  0  0  0  0  0
   41.9603   15.0798   85.0557 C   0  0  0  0  0  0
   44.2240   16.0562   82.1186 C   0  0  0  0  0  0
   43.8847   17.5678   82.1089 C   0  0  0  0  0  0
   45.6303   15.8686   82.7326 C   0  0  0  0  0  0
   44.2224   15.5872   80.6425 C   0  0  0  0  0  0
   44.2089   14.0685   80.5199 C   0  0  0  0  0  0
   42.9348   13.4409   81.1387 C   0  0  0  0  0  0
   43.2042   11.9209   81.2718 C   0  0  0  0  0  0
   41.7298   13.6491   80.1928 C   0  0  0  0  0  0
   38.9753   15.2761   85.9800 C   0  0  0  0  0  0
   37.8648   16.0054   86.6405 C   0  0  0  0  0  0
   36.9262   15.3683   87.4747 C   0  0  0  0  0  0
   35.8917   16.0989   88.0676 C   0  0  0  0  0  0
   35.7690   17.4802   87.8390 C   0  0  0  0  0  0
   34.6747   18.2673   88.4582 C   0  0  0  0  0  0
   33.7231   17.6720   89.0305 O   0  0  0  0  0  0
   34.6560   19.6609   88.4142 O   0  0  0  0  0  0
   36.6898   18.1089   86.9840 C   0  0  0  0  0  0
   37.7237   17.3791   86.3916 C   0  0  0  0  0  0
   35.3760   20.2019   87.9533 H   0  0  0  0  0  0
  1  2  1  0  0  0
  2  3  2  0  0  0
  2  4  1  0  0  0
  4  5  2  0  0  0
  5  6  1  0  0  0
  6  7  2  0  0  0
  7  8  1  0  0  0
  8  9  2  0  0  0
  7 10  1  0  0  0
 10 11  1  0  0  0
 10 12  1  0  0  0
 10 13  1  0  0  0
 13 14  1  0  0  0
 14 15  1  0  0  0
 15 16  1  0  0  0
 15 17  1  0  0  0
  1 18  2  0  0  0
 18 19  1  0  0  0
 19 20  2  0  0  0
 20 21  1  0  0  0
 21 22  2  0  0  0
 22 23  1  0  0  0
 23 24  2  0  0  0
 23 25  1  0  0  0
 22 26  1  0  0  0
 26 27  2  0  0  0
  9  4  1  0  0  0
 27 19  1  0  0  0
 15  6  1  0  0  0
 25 28  1  0  0  0
M  END
>  <CHROM.0>
-161.03312260,-58.33795219,-57.71608476,-56.23666936,-178.37941599,70.46776493

>  <CHROM.1>
-179.77309933,-132.53215456,1.42511674,-10.92369114,0.67155831,40.21916778
15.43908853,84.65132215,2.82674140,0.64917227,0.03946423

>  <RI>
0

>  <Rbt.Current_Directory>
/extra/banzai2/j5wagner/CELPP/2016_10_17_rdock_implementation/normal_run/tutorialVideo/tutorial_rdock_implementation/full_week_run/4-docking/1fcz/SMCSS_2lbd_docking

>  <Rbt.Executable>
rbdock ($Id: //depot/dev/client3/rdock/2013.1/src/exe/rbdock.cxx#4 $)

>  <Rbt.Library>
libRbt.so (2013.1, Build901 2013/11/27)

>  <Rbt.Parameter_File>
/home/j5wagner/env_00/source/rDock/rDock_2013.1_src//data/scripts/dock.prm

>  <Rbt.Receptor>
/extra/banzai2/j5wagner/CELPP/2016_10_17_rdock_implementation/normal_run/tutorialVideo/tutorial_rdock_implementation/full_week_run/4-docking/1fcz/SMCSS_2lbd_tech_prep/rDockGridGenInput.prm

>  <SCORE>
-39.8489

>  <SCORE.INTER>
-30.782

>  <SCORE.INTER.CONST>
1

>  <SCORE.INTER.POLAR>
-1.95492

>  <SCORE.INTER.REPUL>
0

>  <SCORE.INTER.ROT>
4

>  <SCORE.INTER.VDW>
-33.5353

>  <SCORE.INTER.norm>
-1.14007

>  <SCORE.INTRA>
-1.30533

>  <SCORE.INTRA.DIHEDRAL>
-2.89958

>  <SCORE.INTRA.DIHEDRAL.0>
10.7811

>  <SCORE.INTRA.POLAR>
0

>  <SCORE.INTRA.POLAR.0>
0

>  <SCORE.INTRA.REPUL>
0

>  <SCORE.INTRA.REPUL.0>
0

>  <SCORE.INTRA.VDW>
0.14446

>  <SCORE.INTRA.VDW.0>
-0.812999

>  <SCORE.INTRA.norm>
-0.0483457

>  <SCORE.RESTR>
0

>  <SCORE.RESTR.CAVITY>
0

>  <SCORE.RESTR.norm>
0

>  <SCORE.SYSTEM>
-7.76153

>  <SCORE.SYSTEM.CONST>
0

>  <SCORE.SYSTEM.DIHEDRAL>
1.16747

>  <SCORE.SYSTEM.POLAR>
-1.6521

>  <SCORE.SYSTEM.VDW>
-2.72812

>  <SCORE.SYSTEM.norm>
-0.287464

>  <SCORE.heavy>
27

>  <SCORE.norm>
-1.47588

$$$$

  rDOCK(R)          3D
libRbt.so/2013.1/901 2013/11/27
 28 30  0  0  0  0  0  0  0  0999 V2000
   38.8767   13.9918   85.2268 C   0  0  0  0  0  0
   39.8269   13.2317   84.3874 C   0  0  0  0  0  0
   39.6043   12.0049   84.2029 O   0  0  0  0  0  0
   41.0313   13.8415   83.7730 C   0  0  0  0  0  0
   41.5362   13.3352   82.5695 C   0  0  0  0  0  0
   42.7011   13.8682   81.9707 C   0  0  0  0  0  0
   43.3212   15.0039   82.5740 C   0  0  0  0  0  0
   42.8331   15.4558   83.8195 C   0  0  0  0  0  0
   41.7104   14.8830   84.4089 C   0  0  0  0  0  0
   44.5483   15.6963   81.9615 C   0  0  0  0  0  0
   44.3660   17.2348   81.9605 C   0  0  0  0  0  0
   45.7965   15.3463   82.8036 C   0  0  0  0  0  0
   44.7651   15.2699   80.4884 C   0  0  0  0  0  0
   44.6250   13.7648   80.2971 C   0  0  0  0  0  0
   43.2055   13.2572   80.6538 C   0  0  0  0  0  0
   43.2964   11.7144   80.7635 C   0  0  0  0  0  0
   42.2157   13.6156   79.5215 C   0  0  0  0  0  0
   38.8379   15.3324   85.2459 C   0  0  0  0  0  0
   37.8924   16.1211   86.0739 C   0  0  0  0  0  0
   37.8301   17.5270   86.0267 C   0  0  0  0  0  0
   36.9268   18.2254   86.8340 C   0  0  0  0  0  0
   36.0682   17.5370   87.7082 C   0  0  0  0  0  0
   35.1076   18.2647   88.5732 C   0  0  0  0  0  0
   35.1554   19.5219   88.6405 O   0  0  0  0  0  0
   34.1514   17.5944   89.3355 O   0  0  0  0  0  0
   36.1514   16.1359   87.7744 C   0  0  0  0  0  0
   37.0538   15.4379   86.9676 C   0  0  0  0  0  0
   33.5473   18.0696   89.9934 H   0  0  0  0  0  0
  1  2  1  0  0  0
  2  3  2  0  0  0
  2  4  1  0  0  0
  4  5  2  0  0  0
  5  6  1  0  0  0
  6  7  2  0  0  0
  7  8  1  0  0  0
  8  9  2  0  0  0
  7 10  1  0  0  0
 10 11  1  0  0  0
 10 12  1  0  0  0
 10 13  1  0  0  0
 13 14  1  0  0  0
 14 15  1  0  0  0
 15 16  1  0  0  0
 15 17  1  0  0  0
  1 18  2  0  0  0
 18 19  1  0  0  0
 19 20  2  0  0  0
 20 21  1  0  0  0
 21 22  2  0  0  0
 22 23  1  0  0  0
 23 24  2  0  0  0
 23 25  1  0  0  0
 22 26  1  0  0  0
 26 27  2  0  0  0
  9  4  1  0  0  0
 27 19  1  0  0  0
 15  6  1  0  0  0
 25 28  1  0  0  0
M  END
>  <CHROM.0>
-160.18771839,178.68024163,-60.32113088,63.74433169,-174.58466122,73.26141775

>  <CHROM.1>
-164.53741615,-150.73539847,-176.87209545,-7.89015396,174.21816933,40.33271921
15.31804541,84.25046287,2.61521222,0.55582410,0.36753761

>  <RI>
0

>  <Rbt.Current_Directory>
/extra/banzai2/j5wagner/CELPP/2016_10_17_rdock_implementation/normal_run/tutorialVideo/tutorial_rdock_implementation/full_week_run/4-docking/1fcz/SMCSS_2lbd_docking

>  <Rbt.Executable>
rbdock ($Id: //depot/dev/client3/rdock/2013.1/src/exe/rbdock.cxx#4 $)

>  <Rbt.Library>
libRbt.so (2013.1, Build901 2013/11/27)

>  <Rbt.Parameter_File>
/home/j5wagner/env_00/source/rDock/rDock_2013.1_src//data/scripts/dock.prm

>  <Rbt.Receptor>
/extra/banzai2/j5wagner/CELPP/2016_10_17_rdock_implementation/normal_run/tutorialVideo/tutorial_rdock_implementation/full_week_run/4-docking/1fcz/SMCSS_2lbd_tech_prep/rDockGridGenInput.prm

>  <SCORE>
-39.6185

>  <SCORE.INTER>
-29.8175

>  <SCORE.INTER.CONST>
1

>  <SCORE.INTER.POLAR>
-1.88238

>  <SCORE.INTER.REPUL>
0.0439907

>  <SCORE.INTER.ROT>
4

>  <SCORE.INTER.VDW>
-33.0374

>  <SCORE.INTER.norm>
-1.10435

>  <SCORE.INTRA>
-2.12448

>  <SCORE.INTRA.DIHEDRAL>
-5.96978

>  <SCORE.INTRA.DIHEDRAL.0>
10.7811

>  <SCORE.INTRA.POLAR>
0

>  <SCORE.INTRA.POLAR.0>
0

>  <SCORE.INTRA.REPUL>
0

>  <SCORE.INTRA.REPUL.0>
0

>  <SCORE.INTRA.VDW>
0.860405

>  <SCORE.INTRA.VDW.0>
-0.812999

>  <SCORE.INTRA.norm>
-0.0786846

>  <SCORE.RESTR>
0

>  <SCORE.RESTR.CAVITY>
0

>  <SCORE.RESTR.norm>
0

>  <SCORE.SYSTEM>
-7.67654

>  <SCORE.SYSTEM.CONST>
0

>  <SCORE.SYSTEM.DIHEDRAL>
1.61136

>  <SCORE.SYSTEM.POLAR>
-1.65713

>  <SCORE.SYSTEM.VDW>
-2.848

>  <SCORE.SYSTEM.norm>
-0.284316

>  <SCORE.heavy>
27

>  <SCORE.norm>
-1.46735

$$$$

  rDOCK(R)          3D
libRbt.so/2013.1/901 2013/11/27
 28 30  0  0  0  0  0  0  0  0999 V2000
   38.8761   13.9585   85.2182 C   0  0  0  0  0  0
   39.8358   13.1952   84.3925 C   0  0  0  0  0  0
   39.6320   11.9614   84.2356 O   0  0  0  0  0  0
   41.0285   13.8103   83.7610 C   0  0  0  0  0  0
   41.5125   13.3125   82.5453 C   0  0  0  0  0  0
   42.6661   13.8506   81.9296 C   0  0  0  0  0  0
   43.2959   14.9829   82.5294 C   0  0  0  0  0  0
   42.8296   15.4260   83.7863 C   0  0  0  0  0  0
   41.7180   14.8482   84.3917 C   0  0  0  0  0  0
   44.5114   15.6805   81.8999 C   0  0  0  0  0  0
   44.3278   17.2188   81.9125 C   0  0  0  0  0  0
   45.7746   15.3261   82.7174 C   0  0  0  0  0  0
   44.7024   15.2642   80.4204 C   0  0  0  0  0  0
   44.5601   13.7602   80.2215 C   0  0  0  0  0  0
   43.1476   13.2490   80.5999 C   0  0  0  0  0  0
   43.2417   11.7056   80.6976 C   0  0  0  0  0  0
   42.1376   13.6139   79.4878 C   0  0  0  0  0  0
   38.8531   15.2993   85.2502 C   0  0  0  0  0  0
   37.8988   16.0913   86.0649 C   0  0  0  0  0  0
   37.8437   17.4975   86.0188 C   0  0  0  0  0  0
   36.9315   18.1989   86.8133 C   0  0  0  0  0  0
   36.0565   17.5133   87.6733 C   0  0  0  0  0  0
   35.0862   18.2443   88.5246 C   0  0  0  0  0  0
   35.1071   19.5036   88.5562 O   0  0  0  0  0  0
   34.1502   17.5754   89.3127 O   0  0  0  0  0  0
   36.1322   16.1118   87.7387 C   0  0  0  0  0  0
   37.0435   15.4107   86.9448 C   0  0  0  0  0  0
   33.5737   18.0495   89.9957 H   0  0  0  0  0  0
  1  2  1  0  0  0
  2  3  2  0  0  0
  2  4  1  0  0  0
  4  5  2  0  0  0
  5  6  1  0  0  0
  6  7  2  0  0  0
  7  8  1  0  0  0
  8  9  2  0  0  0
  7 10  1  0  0  0
 10 11  1  0  0  0
 10 12  1  0  0  0
 10 13  1  0  0  0
 13 14  1  0  0  0
 14 15  1  0  0  0
 15 16  1  0  0  0
 15 17  1  0  0  0
  1 18  2  0  0  0
 18 19  1  0  0  0
 19 20  2  0  0  0
 20 21  1  0  0  0
 21 22  2  0  0  0
 22 23  1  0  0  0
 23 24  2  0  0  0
 23 25  1  0  0  0
 22 26  1  0  0  0
 26 27  2  0  0  0
  9  4  1  0  0  0
 27 19  1  0  0  0
 15  6  1  0  0  0
 25 28  1  0  0  0
M  END
>  <CHROM.0>
-160.70559482,64.18781690,-175.97804605,-179.53416300,-177.77043647,71.05683590

>  <CHROM.1>
-167.38222582,-148.70669598,-176.09150429,-5.27820536,170.97006847,40.31248713
15.29596272,84.21600669,2.62201389,0.56579066,0.35427354

>  <RI>
0

>  <Rbt.Current_Directory>
/extra/banzai2/j5wagner/CELPP/2016_10_17_rdock_implementation/normal_run/tutorialVideo/tutorial_rdock_implementation/full_week_run/4-docking/1fcz/SMCSS_2lbd_docking

>  <Rbt.Executable>
rbdock ($Id: //depot/dev/client3/rdock/2013.1/src/exe/rbdock.cxx#4 $)

>  <Rbt.Library>
libRbt.so (2013.1, Build901 2013/11/27)

>  <Rbt.Parameter_File>
/home/j5wagner/env_00/source/rDock/rDock_2013.1_src//data/scripts/dock.prm

>  <Rbt.Receptor>
/extra/banzai2/j5wagner/CELPP/2016_10_17_rdock_implementation/normal_run/tutorialVideo/tutorial_rdock_implementation/full_week_run/4-docking/1fcz/SMCSS_2lbd_tech_prep/rDockGridGenInput.prm

>  <SCORE>
-39.531

>  <SCORE.INTER>
-29.8417

>  <SCORE.INTER.CONST>
1

>  <SCORE.INTER.POLAR>
-1.88778

>  <SCORE.INTER.REPUL>
0.0328025

>  <SCORE.INTER.ROT>
4

>  <SCORE.INTER.VDW>
-32.9873

>  <SCORE.INTER.norm>
-1.10525

>  <SCORE.INTRA>
-1.9682

>  <SCORE.INTRA.DIHEDRAL>
-5.62805

>  <SCORE.INTRA.DIHEDRAL.0>
10.7811

>  <SCORE.INTRA.POLAR>
0

>  <SCORE.INTRA.POLAR.0>
0

>  <SCORE.INTRA.REPUL>
0

>  <SCORE.INTRA.REPUL.0>
0

>  <SCORE.INTRA.VDW>
0.845825

>  <SCORE.INTRA.VDW.0>
-0.812999

>  <SCORE.INTRA.norm>
-0.0728963

>  <SCORE.RESTR>
0

>  <SCORE.RESTR.CAVITY>
0

>  <SCORE.RESTR.norm>
0

>  <SCORE.SYSTEM>
-7.72106

>  <SCORE.SYSTEM.CONST>
0

>  <SCORE.SYSTEM.DIHEDRAL>
1.30157

>  <SCORE.SYSTEM.POLAR>
-1.65404

>  <SCORE.SYSTEM.VDW>
-2.7481

>  <SCORE.SYSTEM.norm>
-0.285965

>  <SCORE.heavy>
27

>  <SCORE.norm>
-1.46411

$$$$

  rDOCK(R)          3D
libRbt.so/2013.1/901 2013/11/27
 28 30  0  0  0  0  0  0  0  0999 V2000
   38.8291   14.1558   85.1223 C   0  0  0  0  0  0
   39.8270   13.3485   84.3889 C   0  0  0  0  0  0
   39.6315   12.1069   84.2955 O   0  0  0  0  0  0
   41.0477   13.9294   83.7789 C   0  0  0  0  0  0
   41.5704   13.3825   82.6010 C   0  0  0  0  0  0
   42.7508   13.8874   82.0083 C   0  0  0  0  0  0
   43.3695   15.0359   82.5883 C   0  0  0  0  0  0
   42.8625   15.5296   83.8101 C   0  0  0  0  0  0
   41.7241   14.9843   84.3955 C   0  0  0  0  0  0
   44.6137   15.6992   81.9782 C   0  0  0  0  0  0
   44.4450   17.2384   81.9270 C   0  0  0  0  0  0
   45.8431   15.3649   82.8537 C   0  0  0  0  0  0
   44.8540   15.2263   80.5230 C   0  0  0  0  0  0
   44.7043   13.7172   80.3749 C   0  0  0  0  0  0
   43.2740   13.2324   80.7202 C   0  0  0  0  0  0
   43.3494   11.6930   80.8784 C   0  0  0  0  0  0
   42.3085   13.5641   79.5592 C   0  0  0  0  0  0
   38.8035   15.4960   85.0739 C   0  0  0  0  0  0
   37.8115   16.3312   85.7949 C   0  0  0  0  0  0
   37.7768   17.7347   85.6868 C   0  0  0  0  0  0
   36.8268   18.4782   86.3940 C   0  0  0  0  0  0
   35.8928   17.8384   87.2269 C   0  0  0  0  0  0
   34.8819   18.6144   87.9860 C   0  0  0  0  0  0
   34.8789   19.8725   87.9174 O   0  0  0  0  0  0
   33.9325   17.9910   88.7952 O   0  0  0  0  0  0
   35.9470   16.4403   87.3553 C   0  0  0  0  0  0
   36.8960   15.6971   86.6485 C   0  0  0  0  0  0
   33.9377   16.9953   88.9743 H   0  0  0  0  0  0
  1  2  1  0  0  0
  2  3  2  0  0  0
  2  4  1  0  0  0
  4  5  2  0  0  0
  5  6  1  0  0  0
  6  7  2  0  0  0
  7  8  1  0  0  0
  8  9  2  0  0  0
  7 10  1  0  0  0
 10 11  1  0  0  0
 10 12  1  0  0  0
 10 13  1  0  0  0
 13 14  1  0  0  0
 14 15  1  0  0  0
 15 16  1  0  0  0
 15 17  1  0  0  0
  1 18  2  0  0  0
 18 19  1  0  0  0
 19 20  2  0  0  0
 20 21  1  0  0  0
 21 22  2  0  0  0
 22 23  1  0  0  0
 23 24  2  0  0  0
 23 25  1  0  0  0
 22 26  1  0  0  0
 26 27  2  0  0  0
  9  4  1  0  0  0
 27 19  1  0  0  0
 15  6  1  0  0  0
 25 28  1  0  0  0
M  END
>  <CHROM.0>
-161.23929129,-60.12749072,61.50400139,-179.12159119,68.53874278,-57.05373416

>  <CHROM.1>
-167.35458104,-147.18637498,-177.57217420,-2.05510527,5.88480138,40.30447982
15.43974773,84.10323407,2.64107028,0.52170035,0.29182961

>  <RI>
0

>  <Rbt.Current_Directory>
/extra/banzai2/j5wagner/CELPP/2016_10_17_rdock_implementation/normal_run/tutorialVideo/tutorial_rdock_implementation/full_week_run/4-docking/1fcz/SMCSS_2lbd_docking

>  <Rbt.Executable>
rbdock ($Id: //depot/dev/client3/rdock/2013.1/src/exe/rbdock.cxx#4 $)

>  <Rbt.Library>
libRbt.so (2013.1, Build901 2013/11/27)

>  <Rbt.Parameter_File>
/home/j5wagner/env_00/source/rDock/rDock_2013.1_src//data/scripts/dock.prm

>  <Rbt.Receptor>
/extra/banzai2/j5wagner/CELPP/2016_10_17_rdock_implementation/normal_run/tutorialVideo/tutorial_rdock_implementation/full_week_run/4-docking/1fcz/SMCSS_2lbd_tech_prep/rDockGridGenInput.prm

>  <SCORE>
-39.516

>  <SCORE.INTER>
-31.287

>  <SCORE.INTER.CONST>
1

>  <SCORE.INTER.POLAR>
-2.42216

>  <SCORE.INTER.REPUL>
0

>  <SCORE.INTER.ROT>
4

>  <SCORE.INTER.VDW>
-32.4516

>  <SCORE.INTER.norm>
-1.15878

>  <SCORE.INTRA>
-2.0667

>  <SCORE.INTRA.DIHEDRAL>
-5.70736

>  <SCORE.INTRA.DIHEDRAL.0>
10.7811

>  <SCORE.INTRA.POLAR>
0

>  <SCORE.INTRA.POLAR.0>
0

>  <SCORE.INTRA.REPUL>
0

>  <SCORE.INTRA.REPUL.0>
0

>  <SCORE.INTRA.VDW>
0.786977

>  <SCORE.INTRA.VDW.0>
-0.812999

>  <SCORE.INTRA.norm>
-0.0765445

>  <SCORE.RESTR>
0

>  <SCORE.RESTR.CAVITY>
0

>  <SCORE.RESTR.norm>
0

>  <SCORE.SYSTEM>
-6.16235

>  <SCORE.SYSTEM.CONST>
0

>  <SCORE.SYSTEM.DIHEDRAL>
0.968402

>  <SCORE.SYSTEM.POLAR>
-1.65088

>  <SCORE.SYSTEM.REPUL>
0.165764

>  <SCORE.SYSTEM.VDW>
-1.86237

>  <SCORE.SYSTEM.norm>
-0.228235

>  <SCORE.heavy>
27

>  <SCORE.norm>
-1.46356

$$$$

  rDOCK(R)          3D
libRbt.so/2013.1/901 2013/11/27
 28 30  0  0  0  0  0  0  0  0999 V2000
   38.8848   14.0596   85.3733 C   0  0  0  0  0  0
   39.9311   13.2985   84.6583 C   0  0  0  0  0  0
   39.8368   12.0419   84.6330 O   0  0  0  0  0  0
   41.0874   13.9437   83.9901 C   0  0  0  0  0  0
   41.5462   13.4577   82.7601 C   0  0  0  0  0  0
   42.6660   14.0249   82.1090 C   0  0  0  0  0  0
   43.2846   15.1735   82.6891 C   0  0  0  0  0  0
   42.8461   15.6053   83.9599 C   0  0  0  0  0  0
   41.7690   14.9995   84.5993 C   0  0  0  0  0  0
   44.4616   15.9018   82.0224 C   0  0  0  0  0  0
   44.2389   17.4348   82.0407 C   0  0  0  0  0  0
   45.7583   15.5807   82.8004 C   0  0  0  0  0  0
   44.6175   15.4895   80.5376 C   0  0  0  0  0  0
   44.5080   13.9822   80.3431 C   0  0  0  0  0  0
   43.1215   13.4349   80.7650 C   0  0  0  0  0  0
   43.2584   11.8945   80.8596 C   0  0  0  0  0  0
   42.0685   13.7729   79.6846 C   0  0  0  0  0  0
   38.8503   15.4003   85.3950 C   0  0  0  0  0  0
   37.8104   16.1900   86.0996 C   0  0  0  0  0  0
   37.7215   17.5917   85.9993 C   0  0  0  0  0  0
   36.7276   18.2916   86.6905 C   0  0  0  0  0  0
   35.8026   17.6090   87.4991 C   0  0  0  0  0  0
   34.7453   18.3385   88.2410 C   0  0  0  0  0  0
   33.8627   17.6934   88.8672 O   0  0  0  0  0  0
   34.6858   19.7317   88.2558 O   0  0  0  0  0  0
   35.9102   16.2133   87.6201 C   0  0  0  0  0  0
   36.9032   15.5137   86.9294 C   0  0  0  0  0  0
   35.3615   20.3117   87.7757 H   0  0  0  0  0  0
  1  2  1  0  0  0
  2  3  2  0  0  0
  2  4  1  0  0  0
  4  5  2  0  0  0
  5  6  1  0  0  0
  6  7  2  0  0  0
  7  8  1  0  0  0
  8  9  2  0  0  0
  7 10  1  0  0  0
 10 11  1  0  0  0
 10 12  1  0  0  0
 10 13  1  0  0  0
 13 14  1  0  0  0
 14 15  1  0  0  0
 15 16  1  0  0  0
 15 17  1  0  0  0
  1 18  2  0  0  0
 18 19  1  0  0  0
 19 20  2  0  0  0
 20 21  1  0  0  0
 21 22  2  0  0  0
 22 23  1  0  0  0
 23 24  2  0  0  0
 23 25  1  0  0  0
 22 26  1  0  0  0
 26 27  2  0  0  0
  9  4  1  0  0  0
 27 19  1  0  0  0
 15  6  1  0  0  0
 25 28  1  0  0  0
M  END
>  <CHROM.0>
-160.55532035,-55.64267188,65.97595084,-178.58448964,-177.66605506,172.78028594

>  <CHROM.1>
-176.10752650,-140.85556680,-173.63554289,174.06388464,-0.80832807,40.24208331
15.45371848,84.27272945,2.69358784,0.56880541,0.24649509

>  <RI>
0

>  <Rbt.Current_Directory>
/extra/banzai2/j5wagner/CELPP/2016_10_17_rdock_implementation/normal_run/tutorialVideo/tutorial_rdock_implementation/full_week_run/4-docking/1fcz/SMCSS_2lbd_docking

>  <Rbt.Executable>
rbdock ($Id: //depot/dev/client3/rdock/2013.1/src/exe/rbdock.cxx#4 $)

>  <Rbt.Library>
libRbt.so (2013.1, Build901 2013/11/27)

>  <Rbt.Parameter_File>
/home/j5wagner/env_00/source/rDock/rDock_2013.1_src//data/scripts/dock.prm

>  <Rbt.Receptor>
/extra/banzai2/j5wagner/CELPP/2016_10_17_rdock_implementation/normal_run/tutorialVideo/tutorial_rdock_implementation/full_week_run/4-docking/1fcz/SMCSS_2lbd_tech_prep/rDockGridGenInput.prm

>  <SCORE>
-39.0525

>  <SCORE.INTER>
-30.1519

>  <SCORE.INTER.CONST>
1

>  <SCORE.INTER.POLAR>
-1.93207

>  <SCORE.INTER.REPUL>
0

>  <SCORE.INTER.ROT>
4

>  <SCORE.INTER.VDW>
-32.9829

>  <SCORE.INTER.norm>
-1.11674

>  <SCORE.INTRA>
-1.74676

>  <SCORE.INTRA.DIHEDRAL>
-4.84229

>  <SCORE.INTRA.DIHEDRAL.0>
10.7811

>  <SCORE.INTRA.POLAR>
0

>  <SCORE.INTRA.POLAR.0>
0

>  <SCORE.INTRA.REPUL>
0

>  <SCORE.INTRA.REPUL.0>
0

>  <SCORE.INTRA.VDW>
0.674382

>  <SCORE.INTRA.VDW.0>
-0.812999

>  <SCORE.INTRA.norm>
-0.0646949

>  <SCORE.RESTR>
0

>  <SCORE.RESTR.CAVITY>
0

>  <SCORE.RESTR.norm>
0

>  <SCORE.SYSTEM>
-7.15387

>  <SCORE.SYSTEM.CONST>
0

>  <SCORE.SYSTEM.DIHEDRAL>
1.05242

>  <SCORE.SYSTEM.POLAR>
-1.65494

>  <SCORE.SYSTEM.VDW>
-2.0533

>  <SCORE.SYSTEM.norm>
-0.264958

>  <SCORE.heavy>
27

>  <SCORE.norm>
-1.44639

$$$$

  rDOCK(R)          3D
libRbt.so/2013.1/901 2013/11/27
 28 30  0  0  0  0  0  0  0  0999 V2000
   39.1675   14.0439   86.0857 C   0  0  0  0  0  0
   40.2772   13.3002   85.4527 C   0  0  0  0  0  0
   40.3333   12.0539   85.6318 O   0  0  0  0  0  0
   41.3292   13.9549   84.6374 C   0  0  0  0  0  0
   41.6840   13.4215   83.3927 C   0  0  0  0  0  0
   42.7049   13.9978   82.6020 C   0  0  0  0  0  0
   43.3246   15.2009   83.0568 C   0  0  0  0  0  0
   42.9966   15.6834   84.3427 C   0  0  0  0  0  0
   42.0187   15.0696   85.1192 C   0  0  0  0  0  0
   44.3933   15.9394   82.2367 C   0  0  0  0  0  0
   44.1025   17.4607   82.2006 C   0  0  0  0  0  0
   45.7752   15.7152   82.8922 C   0  0  0  0  0  0
   44.4180   15.4531   80.7664 C   0  0  0  0  0  0
   44.3598   13.9342   80.6603 C   0  0  0  0  0  0
   43.0498   13.3543   81.2497 C   0  0  0  0  0  0
   43.2671   11.8283   81.4072 C   0  0  0  0  0  0
   41.8788   13.5889   80.2679 C   0  0  0  0  0  0
   39.0214   15.3716   85.9632 C   0  0  0  0  0  0
   37.9157   16.1431   86.5827 C   0  0  0  0  0  0
   37.7702   17.5334   86.4137 C   0  0  0  0  0  0
   36.7150   18.2167   87.0261 C   0  0  0  0  0  0
   35.7838   17.5288   87.8229 C   0  0  0  0  0  0
   34.6616   18.2410   88.4817 C   0  0  0  0  0  0
   33.7340   17.5815   89.0220 O   0  0  0  0  0  0
   34.5904   19.6334   88.5099 O   0  0  0  0  0  0
   35.9467   16.1462   88.0132 C   0  0  0  0  0  0
   37.0010   15.4632   87.4012 C   0  0  0  0  0  0
   35.2883   20.2242   88.0771 H   0  0  0  0  0  0
  1  2  1  0  0  0
  2  3  2  0  0  0
  2  4  1  0  0  0
  4  5  2  0  0  0
  5  6  1  0  0  0
  6  7  2  0  0  0
  7  8  1  0  0  0
  8  9  2  0  0  0
  7 10  1  0  0  0
 10 11  1  0  0  0
 10 12  1  0  0  0
 10 13  1  0  0  0
 13 14  1  0  0  0
 14 15  1  0  0  0
 15 16  1  0  0  0
 15 17  1  0  0  0
  1 18  2  0  0  0
 18 19  1  0  0  0
 19 20  2  0  0  0
 20 21  1  0  0  0
 21 22  2  0  0  0
 22 23  1  0  0  0
 23 24  2  0  0  0
 23 25  1  0  0  0
 22 26  1  0  0  0
 26 27  2  0  0  0
  9  4  1  0  0  0
 27 19  1  0  0  0
 15  6  1  0  0  0
 25 28  1  0  0  0
M  END
>  <CHROM.0>
-159.71649583,62.27991619,-59.08364045,179.22062866,-175.43088355,-61.34868892

>  <CHROM.1>
179.63162232,-132.44876200,-178.58816133,169.47151195,0.72537229,40.28726715
15.42273912,84.70748487,2.79321606,0.62074345,0.08180129

>  <RI>
0

>  <Rbt.Current_Directory>
/extra/banzai2/j5wagner/CELPP/2016_10_17_rdock_implementation/normal_run/tutorialVideo/tutorial_rdock_implementation/full_week_run/4-docking/1fcz/SMCSS_2lbd_docking

>  <Rbt.Executable>
rbdock ($Id: //depot/dev/client3/rdock/2013.1/src/exe/rbdock.cxx#4 $)

>  <Rbt.Library>
libRbt.so (2013.1, Build901 2013/11/27)

>  <Rbt.Parameter_File>
/home/j5wagner/env_00/source/rDock/rDock_2013.1_src//data/scripts/dock.prm

>  <Rbt.Receptor>
/extra/banzai2/j5wagner/CELPP/2016_10_17_rdock_implementation/normal_run/tutorialVideo/tutorial_rdock_implementation/full_week_run/4-docking/1fcz/SMCSS_2lbd_tech_prep/rDockGridGenInput.prm

>  <SCORE>
-38.7928

>  <SCORE.INTER>
-30.979

>  <SCORE.INTER.CONST>
1

>  <SCORE.INTER.POLAR>
-1.95577

>  <SCORE.INTER.REPUL>
0

>  <SCORE.INTER.ROT>
4

>  <SCORE.INTER.VDW>
-33.7294

>  <SCORE.INTER.norm>
-1.14737

>  <SCORE.INTRA>
-1.01074

>  <SCORE.INTRA.DIHEDRAL>
-2.9152

>  <SCORE.INTRA.DIHEDRAL.0>
10.7811

>  <SCORE.INTRA.POLAR>
0

>  <SCORE.INTRA.POLAR.0>
0

>  <SCORE.INTRA.REPUL>
0

>  <SCORE.INTRA.REPUL.0>
0

>  <SCORE.INTRA.VDW>
0.446857

>  <SCORE.INTRA.VDW.0>
-0.812999

>  <SCORE.INTRA.norm>
-0.0374349

>  <SCORE.RESTR>
0

>  <SCORE.RESTR.CAVITY>
0

>  <SCORE.RESTR.norm>
0

>  <SCORE.SYSTEM>
-6.80303

>  <SCORE.SYSTEM.CONST>
0

>  <SCORE.SYSTEM.DIHEDRAL>
0.768896

>  <SCORE.SYSTEM.POLAR>
-1.65994

>  <SCORE.SYSTEM.REPUL>
0.147418

>  <SCORE.SYSTEM.VDW>
-2.28076

>  <SCORE.SYSTEM.norm>
-0.251964

>  <SCORE.heavy>
27

>  <SCORE.norm>
-1.43677

$$$$

  rDOCK(R)          3D
libRbt.so/2013.1/901 2013/11/27
 28 30  0  0  0  0  0  0  0  0999 V2000
   39.2077   13.9595   86.0446 C   0  0  0  0  0  0
   40.3232   13.2389   85.3952 C   0  0  0  0  0  0
   40.3994   11.9918   85.5613 O   0  0  0  0  0  0
   41.3585   13.9173   84.5781 C   0  0  0  0  0  0
   41.6909   13.4179   83.3132 C   0  0  0  0  0  0
   42.6958   14.0173   82.5192 C   0  0  0  0  0  0
   43.3218   15.2093   82.9941 C   0  0  0  0  0  0
   43.0171   15.6568   84.2982 C   0  0  0  0  0  0
   42.0550   15.0205   85.0764 C   0  0  0  0  0  0
   44.3737   15.9718   82.1740 C   0  0  0  0  0  0
   44.0795   17.4928   82.1839 C   0  0  0  0  0  0
   45.7680   15.7333   82.7974 C   0  0  0  0  0  0
   44.3716   15.5247   80.6911 C   0  0  0  0  0  0
   44.3141   14.0090   80.5458 C   0  0  0  0  0  0
   43.0164   13.4107   81.1440 C   0  0  0  0  0  0
   43.2393   11.8816   81.2569 C   0  0  0  0  0  0
   41.8268   13.6685   80.1908 C   0  0  0  0  0  0
   39.0165   15.2795   85.9019 C   0  0  0  0  0  0
   37.9038   16.0278   86.5372 C   0  0  0  0  0  0
   36.9502   15.4113   87.3698 C   0  0  0  0  0  0
   35.9144   16.1591   87.9384 C   0  0  0  0  0  0
   35.8053   17.5375   87.6863 C   0  0  0  0  0  0
   34.7098   18.3427   88.2795 C   0  0  0  0  0  0
   33.7852   17.7686   88.9144 O   0  0  0  0  0  0
   34.6602   19.7297   88.1432 O   0  0  0  0  0  0
   36.7413   18.1454   86.8328 C   0  0  0  0  0  0
   37.7765   17.3983   86.2647 C   0  0  0  0  0  0
   35.3596   20.2530   87.6327 H   0  0  0  0  0  0
  1  2  1  0  0  0
  2  3  2  0  0  0
  2  4  1  0  0  0
  4  5  2  0  0  0
  5  6  1  0  0  0
  6  7  2  0  0  0
  7  8  1  0  0  0
  8  9  2  0  0  0
  7 10  1  0  0  0
 10 11  1  0  0  0
 10 12  1  0  0  0
 10 13  1  0  0  0
 13 14  1  0  0  0
 14 15  1  0  0  0
 15 16  1  0  0  0
 15 17  1  0  0  0
  1 18  2  0  0  0
 18 19  1  0  0  0
 19 20  2  0  0  0
 20 21  1  0  0  0
 21 22  2  0  0  0
 22 23  1  0  0  0
 23 24  2  0  0  0
 23 25  1  0  0  0
 22 26  1  0  0  0
 26 27  2  0  0  0
  9  4  1  0  0  0
 27 19  1  0  0  0
 15  6  1  0  0  0
 25 28  1  0  0  0
M  END
>  <CHROM.0>
-159.81844423,179.59786852,-178.27307043,57.53077128,-176.71051282,-60.06036687

>  <CHROM.1>
-178.19729724,-131.09759604,0.86954676,-6.96154606,0.36349075,40.29160866
15.42827714,84.60802934,2.81734293,0.62915032,0.03684858

>  <RI>
0

>  <Rbt.Current_Directory>
/extra/banzai2/j5wagner/CELPP/2016_10_17_rdock_implementation/normal_run/tutorialVideo/tutorial_rdock_implementation/full_week_run/4-docking/1fcz/SMCSS_2lbd_docking

>  <Rbt.Executable>
rbdock ($Id: //depot/dev/client3/rdock/2013.1/src/exe/rbdock.cxx#4 $)

>  <Rbt.Library>
libRbt.so (2013.1, Build901 2013/11/27)

>  <Rbt.Parameter_File>
/home/j5wagner/env_00/source/rDock/rDock_2013.1_src//data/scripts/dock.prm

>  <Rbt.Receptor>
/extra/banzai2/j5wagner/CELPP/2016_10_17_rdock_implementation/normal_run/tutorialVideo/tutorial_rdock_implementation/full_week_run/4-docking/1fcz/SMCSS_2lbd_tech_prep/rDockGridGenInput.prm

>  <SCORE>
-38.7681

>  <SCORE.INTER>
-30.7366

>  <SCORE.INTER.CONST>
1

>  <SCORE.INTER.POLAR>
-1.95577

>  <SCORE.INTER.REPUL>
0

>  <SCORE.INTER.ROT>
4

>  <SCORE.INTER.VDW>
-33.487

>  <SCORE.INTER.norm>
-1.13839

>  <SCORE.INTRA>
-1.31116

>  <SCORE.INTRA.DIHEDRAL>
-2.86196

>  <SCORE.INTRA.DIHEDRAL.0>
10.7811

>  <SCORE.INTRA.POLAR>
0

>  <SCORE.INTRA.POLAR.0>
0

>  <SCORE.INTRA.REPUL>
0

>  <SCORE.INTRA.REPUL.0>
0

>  <SCORE.INTRA.VDW>
0.119814

>  <SCORE.INTRA.VDW.0>
-0.812999

>  <SCORE.INTRA.norm>
-0.0485617

>  <SCORE.RESTR>
0

>  <SCORE.RESTR.CAVITY>
0

>  <SCORE.RESTR.norm>
0

>  <SCORE.SYSTEM>
-6.72027

>  <SCORE.SYSTEM.CONST>
0

>  <SCORE.SYSTEM.DIHEDRAL>
0.723442

>  <SCORE.SYSTEM.POLAR>
-1.65933

>  <SCORE.SYSTEM.REPUL>
0.153061

>  <SCORE.SYSTEM.VDW>
-2.20556

>  <SCORE.SYSTEM.norm>
-0.248899

>  <SCORE.heavy>
27

>  <SCORE.norm>
-1.43585

$$$$

  rDOCK(R)          3D
libRbt.so/2013.1/901 2013/11/27
 28 30  0  0  0  0  0  0  0  0999 V2000
   39.2079   13.9668   86.0688 C   0  0  0  0  0  0
   40.3208   13.2437   85.4176 C   0  0  0  0  0  0
   40.4048   11.9992   85.5982 O   0  0  0  0  0  0
   41.3449   13.9172   84.5825 C   0  0  0  0  0  0
   41.6477   13.4204   83.3093 C   0  0  0  0  0  0
   42.6413   14.0150   82.4976 C   0  0  0  0  0  0
   43.2863   15.2000   82.9645 C   0  0  0  0  0  0
   43.0115   15.6445   84.2762 C   0  0  0  0  0  0
   42.0602   15.0127   85.0710 C   0  0  0  0  0  0
   44.3276   15.9574   82.1264 C   0  0  0  0  0  0
   44.0459   17.4807   82.1481 C   0  0  0  0  0  0
   45.7322   15.7052   82.7206 C   0  0  0  0  0  0
   44.2921   15.5164   80.6421 C   0  0  0  0  0  0
   44.2195   14.0018   80.4920 C   0  0  0  0  0  0
   42.9293   13.4114   81.1138 C   0  0  0  0  0  0
   43.1421   11.8801   81.2161 C   0  0  0  0  0  0
   41.7229   13.6827   80.1858 C   0  0  0  0  0  0
   39.0212   15.2877   85.9292 C   0  0  0  0  0  0
   37.9111   16.0383   86.5663 C   0  0  0  0  0  0
   36.9814   15.4319   87.4325 C   0  0  0  0  0  0
   35.9469   16.1814   88.0014 C   0  0  0  0  0  0
   35.8155   17.5513   87.7164 C   0  0  0  0  0  0
   34.7211   18.3581   88.3096 C   0  0  0  0  0  0
   33.7876   17.7839   88.9312 O   0  0  0  0  0  0
   34.6825   19.7467   88.1876 O   0  0  0  0  0  0
   36.7274   18.1485   86.8298 C   0  0  0  0  0  0
   37.7613   17.3998   86.2613 C   0  0  0  0  0  0
   35.3863   20.2698   87.6833 H   0  0  0  0  0  0
  1  2  1  0  0  0
  2  3  2  0  0  0
  2  4  1  0  0  0
  4  5  2  0  0  0
  5  6  1  0  0  0
  6  7  2  0  0  0
  7  8  1  0  0  0
  8  9  2  0  0  0
  7 10  1  0  0  0
 10 11  1  0  0  0
 10 12  1  0  0  0
 10 13  1  0  0  0
 13 14  1  0  0  0
 14 15  1  0  0  0
 15 16  1  0  0  0
 15 17  1  0  0  0
  1 18  2  0  0  0
 18 19  1  0  0  0
 19 20  2  0  0  0
 20 21  1  0  0  0
 21 22  2  0  0  0
 22 23  1  0  0  0
 23 24  2  0  0  0
 23 25  1  0  0  0
 22 26  1  0  0  0
 26 27  2  0  0  0
  9  4  1  0  0  0
 27 19  1  0  0  0
 15  6  1  0  0  0
 25 28  1  0  0  0
M  END
>  <CHROM.0>
-159.87288961,-56.89460368,65.16374907,-175.28241916,-176.76342692,-56.83818663

>  <CHROM.1>
-179.29708953,-129.76031342,3.00921018,-9.77902974,0.75675718,40.26792162
15.43058957,84.60652892,2.82166360,0.64162904,0.02567212

>  <RI>
0

>  <Rbt.Current_Directory>
/extra/banzai2/j5wagner/CELPP/2016_10_17_rdock_implementation/normal_run/tutorialVideo/tutorial_rdock_implementation/full_week_run/4-docking/1fcz/SMCSS_2lbd_docking

>  <Rbt.Executable>
rbdock ($Id: //depot/dev/client3/rdock/2013.1/src/exe/rbdock.cxx#4 $)

>  <Rbt.Library>
libRbt.so (2013.1, Build901 2013/11/27)

>  <Rbt.Parameter_File>
/home/j5wagner/env_00/source/rDock/rDock_2013.1_src//data/scripts/dock.prm

>  <Rbt.Receptor>
/extra/banzai2/j5wagner/CELPP/2016_10_17_rdock_implementation/normal_run/tutorialVideo/tutorial_rdock_implementation/full_week_run/4-docking/1fcz/SMCSS_2lbd_tech_prep/rDockGridGenInput.prm

>  <SCORE>
-38.6239

>  <SCORE.INTER>
-30.9909

>  <SCORE.INTER.CONST>
1

>  <SCORE.INTER.POLAR>
-1.95247

>  <SCORE.INTER.REPUL>
0

>  <SCORE.INTER.ROT>
4

>  <SCORE.INTER.VDW>
-33.7525

>  <SCORE.INTER.norm>
-1.14781

>  <SCORE.INTRA>
-1.093

>  <SCORE.INTRA.DIHEDRAL>
-2.34337

>  <SCORE.INTRA.DIHEDRAL.0>
10.7811

>  <SCORE.INTRA.POLAR>
0

>  <SCORE.INTRA.POLAR.0>
0

>  <SCORE.INTRA.REPUL>
0

>  <SCORE.INTRA.REPUL.0>
0

>  <SCORE.INTRA.VDW>
0.0786873

>  <SCORE.INTRA.VDW.0>
-0.812999

>  <SCORE.INTRA.norm>
-0.0404814

>  <SCORE.RESTR>
0

>  <SCORE.RESTR.CAVITY>
0

>  <SCORE.RESTR.norm>
0

>  <SCORE.SYSTEM>
-6.54004

>  <SCORE.SYSTEM.CONST>
0

>  <SCORE.SYSTEM.DIHEDRAL>
0.90503

>  <SCORE.SYSTEM.POLAR>
-1.65901

>  <SCORE.SYSTEM.REPUL>
0.166648

>  <SCORE.SYSTEM.VDW>
-2.18517

>  <SCORE.SYSTEM.norm>
-0.242224

>  <SCORE.heavy>
27

>  <SCORE.norm>
-1.43052

$$$$

  rDOCK(R)          3D
libRbt.so/2013.1/901 2013/11/27
 28 30  0  0  0  0  0  0  0  0999 V2000
   39.6198   14.5535   85.4392 C   0  0  0  0  0  0
   40.4970   13.4738   84.9392 C   0  0  0  0  0  0
   40.1951   12.2843   85.2268 O   0  0  0  0  0  0
   41.7172   13.7290   84.1356 C   0  0  0  0  0  0
   41.8569   13.1468   82.8702 C   0  0  0  0  0  0
   43.0196   13.3395   82.0889 C   0  0  0  0  0  0
   44.0334   14.2181   82.5773 C   0  0  0  0  0  0
   43.9000   14.7417   83.8818 C   0  0  0  0  0  0
   42.7638   14.4990   84.6474 C   0  0  0  0  0  0
   45.2998   14.5454   81.7714 C   0  0  0  0  0  0
   45.5826   16.0686   81.7893 C   0  0  0  0  0  0
   46.5036   13.8112   82.4049 C   0  0  0  0  0  0
   45.1497   14.1351   80.2855 C   0  0  0  0  0  0
   44.5431   12.7461   80.1292 C   0  0  0  0  0  0
   43.1103   12.6622   80.7123 C   0  0  0  0  0  0
   42.7570   11.1573   80.8164 C   0  0  0  0  0  0
   42.1076   13.3408   79.7509 C   0  0  0  0  0  0
   38.6370   14.3372   86.3262 C   0  0  0  0  0  0
   37.7452   15.4016   86.8489 C   0  0  0  0  0  0
   37.9329   16.7651   86.5519 C   0  0  0  0  0  0
   37.0692   17.7317   87.0766 C   0  0  0  0  0  0
   36.0015   17.3596   87.9114 C   0  0  0  0  0  0
   35.0796   18.3742   88.4782 C   0  0  0  0  0  0
   33.9155   18.0377   88.8231 O   0  0  0  0  0  0
   35.4579   19.7079   88.6295 O   0  0  0  0  0  0
   35.8326   16.0014   88.2293 C   0  0  0  0  0  0
   36.6954   15.0354   87.7049 C   0  0  0  0  0  0
   36.3715   20.0496   88.3612 H   0  0  0  0  0  0
  1  2  1  0  0  0
  2  3  2  0  0  0
  2  4  1  0  0  0
  4  5  2  0  0  0
  5  6  1  0  0  0
  6  7  2  0  0  0
  7  8  1  0  0  0
  8  9  2  0  0  0
  7 10  1  0  0  0
 10 11  1  0  0  0
 10 12  1  0  0  0
 10 13  1  0  0  0
 13 14  1  0  0  0
 14 15  1  0  0  0
 15 16  1  0  0  0
 15 17  1  0  0  0
  1 18  2  0  0  0
 18 19  1  0  0  0
 19 20  2  0  0  0
 20 21  1  0  0  0
 21 22  2  0  0  0
 22 23  1  0  0  0
 23 24  2  0  0  0
 23 25  1  0  0  0
 22 26  1  0  0  0
 26 27  2  0  0  0
  9  4  1  0  0  0
 27 19  1  0  0  0
 15  6  1  0  0  0
 25 28  1  0  0  0
M  END
>  <CHROM.0>
-160.10802583,-177.60566430,-176.13984165,-55.53987096,65.20468560,71.26386086

>  <CHROM.1>
9.39497675,-123.04600116,-6.11527911,155.96097700,0.12694535,40.61869641
14.88439766,84.43939883,2.57757084,0.50566351,0.39105057

>  <RI>
0

>  <Rbt.Current_Directory>
/extra/banzai2/j5wagner/CELPP/2016_10_17_rdock_implementation/normal_run/tutorialVideo/tutorial_rdock_implementation/full_week_run/4-docking/1fcz/SMCSS_2lbd_docking

>  <Rbt.Executable>
rbdock ($Id: //depot/dev/client3/rdock/2013.1/src/exe/rbdock.cxx#4 $)

>  <Rbt.Library>
libRbt.so (2013.1, Build901 2013/11/27)

>  <Rbt.Parameter_File>
/home/j5wagner/env_00/source/rDock/rDock_2013.1_src//data/scripts/dock.prm

>  <Rbt.Receptor>
/extra/banzai2/j5wagner/CELPP/2016_10_17_rdock_implementation/normal_run/tutorialVideo/tutorial_rdock_implementation/full_week_run/4-docking/1fcz/SMCSS_2lbd_tech_prep/rDockGridGenInput.prm

>  <SCORE>
-38.2635

>  <SCORE.INTER>
-31.7919

>  <SCORE.INTER.CONST>
1

>  <SCORE.INTER.POLAR>
-2.33609

>  <SCORE.INTER.REPUL>
0

>  <SCORE.INTER.ROT>
4

>  <SCORE.INTER.VDW>
-33.2492

>  <SCORE.INTER.norm>
-1.17748

>  <SCORE.INTRA>
0.710138

>  <SCORE.INTRA.DIHEDRAL>
1.19736

>  <SCORE.INTRA.DIHEDRAL.0>
10.7811

>  <SCORE.INTRA.POLAR>
0

>  <SCORE.INTRA.POLAR.0>
0

>  <SCORE.INTRA.REPUL>
0

>  <SCORE.INTRA.REPUL.0>
0

>  <SCORE.INTRA.VDW>
0.11146

>  <SCORE.INTRA.VDW.0>
-0.812999

>  <SCORE.INTRA.norm>
0.0263014

>  <SCORE.RESTR>
0

>  <SCORE.RESTR.CAVITY>
0

>  <SCORE.RESTR.norm>
0

>  <SCORE.SYSTEM>
-7.18165

>  <SCORE.SYSTEM.CONST>
0

>  <SCORE.SYSTEM.DIHEDRAL>
1.47411

>  <SCORE.SYSTEM.POLAR>
-1.6576

>  <SCORE.SYSTEM.VDW>
-2.28287

>  <SCORE.SYSTEM.norm>
-0.265987

>  <SCORE.heavy>
27

>  <SCORE.norm>
-1.41717

$$$$

  rDOCK(R)          3D
libRbt.so/2013.1/901 2013/11/27
 28 30  0  0  0  0  0  0  0  0999 V2000
   38.8225   14.0417   85.3877 C   0  0  0  0  0  0
   39.8184   13.3027   84.5831 C   0  0  0  0  0  0
   39.6661   12.0588   84.4486 O   0  0  0  0  0  0
   40.9897   13.9539   83.9475 C   0  0  0  0  0  0
   41.4574   13.4990   82.7090 C   0  0  0  0  0  0
   42.5911   14.0721   82.0877 C   0  0  0  0  0  0
   43.2156   15.1959   82.7086 C   0  0  0  0  0  0
   42.7671   15.5952   83.9865 C   0  0  0  0  0  0
   41.6759   14.9833   84.5954 C   0  0  0  0  0  0
   44.4085   15.9298   82.0771 C   0  0  0  0  0  0
   44.2029   17.4641   82.1382 C   0  0  0  0  0  0
   45.6923   15.5710   82.8600 C   0  0  0  0  0  0
   44.5771   15.5596   80.5827 C   0  0  0  0  0  0
   44.4530   14.0600   80.3424 C   0  0  0  0  0  0
   43.0556   13.5167   80.7321 C   0  0  0  0  0  0
   43.1741   11.9727   80.7828 C   0  0  0  0  0  0
   42.0192   13.8985   79.6503 C   0  0  0  0  0  0
   38.8329   15.3779   85.5056 C   0  0  0  0  0  0
   37.8440   16.1460   86.3015 C   0  0  0  0  0  0
   36.8320   15.5267   87.0598 C   0  0  0  0  0  0
   35.9179   16.2958   87.7867 C   0  0  0  0  0  0
   35.9913   17.6992   87.7707 C   0  0  0  0  0  0
   35.0263   18.5279   88.5339 C   0  0  0  0  0  0
   33.9658   18.0079   88.9725 O   0  0  0  0  0  0
   35.2490   19.8838   88.7717 O   0  0  0  0  0  0
   36.9843   18.3159   86.9911 C   0  0  0  0  0  0
   37.8980   17.5477   86.2648 C   0  0  0  0  0  0
   36.0675   20.3704   88.4298 H   0  0  0  0  0  0
  1  2  1  0  0  0
  2  3  2  0  0  0
  2  4  1  0  0  0
  4  5  2  0  0  0
  5  6  1  0  0  0
  6  7  2  0  0  0
  7  8  1  0  0  0
  8  9  2  0  0  0
  7 10  1  0  0  0
 10 11  1  0  0  0
 10 12  1  0  0  0
 10 13  1  0  0  0
 13 14  1  0  0  0
 14 15  1  0  0  0
 15 16  1  0  0  0
 15 17  1  0  0  0
  1 18  2  0  0  0
 18 19  1  0  0  0
 19 20  2  0  0  0
 20 21  1  0  0  0
 21 22  2  0  0  0
 22 23  1  0  0  0
 23 24  2  0  0  0
 23 25  1  0  0  0
 22 26  1  0  0  0
 26 27  2  0  0  0
  9  4  1  0  0  0
 27 19  1  0  0  0
 15  6  1  0  0  0
 25 28  1  0  0  0
M  END
>  <CHROM.0>
-161.84199157,-174.98841789,-56.58650199,-177.62605321,-178.15823399,171.93167985

>  <CHROM.1>
-174.62053026,-145.23578806,2.95312331,-15.09462367,0.73335325,40.25449203
15.50627071,84.35407835,2.62627410,0.56624821,0.33750725

>  <RI>
0

>  <Rbt.Current_Directory>
/extra/banzai2/j5wagner/CELPP/2016_10_17_rdock_implementation/normal_run/tutorialVideo/tutorial_rdock_implementation/full_week_run/4-docking/1fcz/SMCSS_2lbd_docking

>  <Rbt.Executable>
rbdock ($Id: //depot/dev/client3/rdock/2013.1/src/exe/rbdock.cxx#4 $)

>  <Rbt.Library>
libRbt.so (2013.1, Build901 2013/11/27)

>  <Rbt.Parameter_File>
/home/j5wagner/env_00/source/rDock/rDock_2013.1_src//data/scripts/dock.prm

>  <Rbt.Receptor>
/extra/banzai2/j5wagner/CELPP/2016_10_17_rdock_implementation/normal_run/tutorialVideo/tutorial_rdock_implementation/full_week_run/4-docking/1fcz/SMCSS_2lbd_tech_prep/rDockGridGenInput.prm

>  <SCORE>
-38.1739

>  <SCORE.INTER>
-28.7277

>  <SCORE.INTER.CONST>
1

>  <SCORE.INTER.POLAR>
-1.45148

>  <SCORE.INTER.REPUL>
0

>  <SCORE.INTER.ROT>
4

>  <SCORE.INTER.VDW>
-33.1927

>  <SCORE.INTER.norm>
-1.06399

>  <SCORE.INTRA>
-2.09102

>  <SCORE.INTRA.DIHEDRAL>
-5.13365

>  <SCORE.INTRA.DIHEDRAL.0>
10.7811

>  <SCORE.INTRA.POLAR>
0

>  <SCORE.INTRA.POLAR.0>
0

>  <SCORE.INTRA.REPUL>
0

>  <SCORE.INTRA.REPUL.0>
0

>  <SCORE.INTRA.VDW>
0.475807

>  <SCORE.INTRA.VDW.0>
-0.812999

>  <SCORE.INTRA.norm>
-0.0774451

>  <SCORE.RESTR>
0

>  <SCORE.RESTR.CAVITY>
0

>  <SCORE.RESTR.norm>
0

>  <SCORE.SYSTEM>
-7.35513

>  <SCORE.SYSTEM.CONST>
0

>  <SCORE.SYSTEM.DIHEDRAL>
0.979004

>  <SCORE.SYSTEM.POLAR>
-1.64734

>  <SCORE.SYSTEM.VDW>
-2.24367

>  <SCORE.SYSTEM.norm>
-0.272412

>  <SCORE.heavy>
27

>  <SCORE.norm>
-1.41385

$$$$

  rDOCK(R)          3D
libRbt.so/2013.1/901 2013/11/27
 28 30  0  0  0  0  0  0  0  0999 V2000
   38.7370   14.1404   85.2334 C   0  0  0  0  0  0
   39.7315   13.3181   84.5123 C   0  0  0  0  0  0
   39.5365   12.0747   84.4467 O   0  0  0  0  0  0
   40.9485   13.8865   83.8832 C   0  0  0  0  0  0
   41.4444   13.3372   82.6949 C   0  0  0  0  0  0
   42.6205   13.8300   82.0836 C   0  0  0  0  0  0
   43.2626   14.9693   82.6564 C   0  0  0  0  0  0
   42.7824   15.4651   83.8882 C   0  0  0  0  0  0
   41.6478   14.9314   84.4913 C   0  0  0  0  0  0
   44.5040   15.6198   82.0271 C   0  0  0  0  0  0
   44.3527   17.1610   81.9834 C   0  0  0  0  0  0
   45.7441   15.2682   82.8805 C   0  0  0  0  0  0
   44.7138   15.1487   80.5666 C   0  0  0  0  0  0
   44.5437   13.6420   80.4166 C   0  0  0  0  0  0
   43.1138   13.1731   80.7848 C   0  0  0  0  0  0
   43.1736   11.6323   80.9371 C   0  0  0  0  0  0
   42.1327   13.5198   79.6415 C   0  0  0  0  0  0
   38.7560   15.4815   85.2169 C   0  0  0  0  0  0
   37.7686   16.3318   85.9266 C   0  0  0  0  0  0
   37.7357   17.7331   85.7923 C   0  0  0  0  0  0
   36.7902   18.4914   86.4897 C   0  0  0  0  0  0
   35.8590   17.8689   87.3387 C   0  0  0  0  0  0
   34.8527   18.6608   88.0876 C   0  0  0  0  0  0
   33.9220   18.0710   88.6986 O   0  0  0  0  0  0
   34.8941   20.0541   88.1257 O   0  0  0  0  0  0
   35.9114   16.4734   87.4931 C   0  0  0  0  0  0
   36.8560   15.7154   86.7961 C   0  0  0  0  0  0
   34.2325   20.6052   88.6569 H   0  0  0  0  0  0
  1  2  1  0  0  0
  2  3  2  0  0  0
  2  4  1  0  0  0
  4  5  2  0  0  0
  5  6  1  0  0  0
  6  7  2  0  0  0
  7  8  1  0  0  0
  8  9  2  0  0  0
  7 10  1  0  0  0
 10 11  1  0  0  0
 10 12  1  0  0  0
 10 13  1  0  0  0
 13 14  1  0  0  0
 14 15  1  0  0  0
 15 16  1  0  0  0
 15 17  1  0  0  0
  1 18  2  0  0  0
 18 19  1  0  0  0
 19 20  2  0  0  0
 20 21  1  0  0  0
 21 22  2  0  0  0
 22 23  1  0  0  0
 23 24  2  0  0  0
 23 25  1  0  0  0
 22 26  1  0  0  0
 26 27  2  0  0  0
  9  4  1  0  0  0
 27 19  1  0  0  0
 15  6  1  0  0  0
 25 28  1  0  0  0
M  END
>  <CHROM.0>
-159.21578114,-178.74838233,-176.45550393,-59.40259700,65.08493600,170.29277034

>  <CHROM.1>
-171.22566312,-145.46215389,-173.90488832,170.59416913,-177.94869907,40.21972509
15.42920452,84.19027243,2.62312486,0.52784509,0.28711709

>  <RI>
0

>  <Rbt.Current_Directory>
/extra/banzai2/j5wagner/CELPP/2016_10_17_rdock_implementation/normal_run/tutorialVideo/tutorial_rdock_implementation/full_week_run/4-docking/1fcz/SMCSS_2lbd_docking

>  <Rbt.Executable>
rbdock ($Id: //depot/dev/client3/rdock/2013.1/src/exe/rbdock.cxx#4 $)

>  <Rbt.Library>
libRbt.so (2013.1, Build901 2013/11/27)

>  <Rbt.Parameter_File>
/home/j5wagner/env_00/source/rDock/rDock_2013.1_src//data/scripts/dock.prm

>  <Rbt.Receptor>
/extra/banzai2/j5wagner/CELPP/2016_10_17_rdock_implementation/normal_run/tutorialVideo/tutorial_rdock_implementation/full_week_run/4-docking/1fcz/SMCSS_2lbd_tech_prep/rDockGridGenInput.prm

>  <SCORE>
-38.0394

>  <SCORE.INTER>
-29.2901

>  <SCORE.INTER.CONST>
1

>  <SCORE.INTER.POLAR>
-1.71219

>  <SCORE.INTER.REPUL>
0

>  <SCORE.INTER.ROT>
4

>  <SCORE.INTER.VDW>
-32.8687

>  <SCORE.INTER.norm>
-1.08482

>  <SCORE.INTRA>
-1.91568

>  <SCORE.INTRA.DIHEDRAL>
-5.37961

>  <SCORE.INTRA.DIHEDRAL.0>
10.7811

>  <SCORE.INTRA.POLAR>
0

>  <SCORE.INTRA.POLAR.0>
0

>  <SCORE.INTRA.REPUL>
0

>  <SCORE.INTRA.REPUL.0>
0

>  <SCORE.INTRA.VDW>
0.774125

>  <SCORE.INTRA.VDW.0>
-0.812999

>  <SCORE.INTRA.norm>
-0.0709511

>  <SCORE.RESTR>
0

>  <SCORE.RESTR.CAVITY>
0

>  <SCORE.RESTR.norm>
0

>  <SCORE.SYSTEM>
-6.83353

>  <SCORE.SYSTEM.CONST>
0

>  <SCORE.SYSTEM.DIHEDRAL>
1.30525

>  <SCORE.SYSTEM.POLAR>
-1.65983

>  <SCORE.SYSTEM.VDW>
-1.84272

>  <SCORE.SYSTEM.norm>
-0.253094

>  <SCORE.heavy>
27

>  <SCORE.norm>
-1.40886

$$$$

  rDOCK(R)          3D
libRbt.so/2013.1/901 2013/11/27
 28 30  0  0  0  0  0  0  0  0999 V2000
   38.8100   14.1704   85.2141 C   0  0  0  0  0  0
   39.8143   13.3560   84.4977 C   0  0  0  0  0  0
   39.6503   12.1067   84.4656 O   0  0  0  0  0  0
   41.0067   13.9392   83.8360 C   0  0  0  0  0  0
   41.4803   13.3923   82.6375 C   0  0  0  0  0  0
   42.6333   13.8995   81.9949 C   0  0  0  0  0  0
   43.2733   15.0500   82.5471 C   0  0  0  0  0  0
   42.8173   15.5437   83.7889 C   0  0  0  0  0  0
   41.7061   14.9963   84.4224 C   0  0  0  0  0  0
   44.4889   15.7157   81.8843 C   0  0  0  0  0  0
   44.3144   17.2545   81.8389 C   0  0  0  0  0  0
   45.7551   15.3853   82.7073 C   0  0  0  0  0  0
   44.6685   15.2420   80.4206 C   0  0  0  0  0  0
   44.5163   13.7324   80.2803 C   0  0  0  0  0  0
   43.1031   13.2445   80.6864 C   0  0  0  0  0  0
   43.1889   11.7054   80.8426 C   0  0  0  0  0  0
   42.0885   13.5727   79.5670 C   0  0  0  0  0  0
   38.8165   15.5116   85.1947 C   0  0  0  0  0  0
   37.8191   16.3542   85.8996 C   0  0  0  0  0  0
   37.7744   17.7549   85.7633 C   0  0  0  0  0  0
   36.8197   18.5058   86.4562 C   0  0  0  0  0  0
   35.8908   17.8763   87.3025 C   0  0  0  0  0  0
   34.8748   18.6603   88.0466 C   0  0  0  0  0  0
   34.8578   19.9161   87.9464 O   0  0  0  0  0  0
   33.9360   18.0473   88.8758 O   0  0  0  0  0  0
   35.9548   16.4814   87.4589 C   0  0  0  0  0  0
   36.9086   15.7309   86.7665 C   0  0  0  0  0  0
   33.9536   17.0567   89.0809 H   0  0  0  0  0  0
  1  2  1  0  0  0
  2  3  2  0  0  0
  2  4  1  0  0  0
  4  5  2  0  0  0
  5  6  1  0  0  0
  6  7  2  0  0  0
  7  8  1  0  0  0
  8  9  2  0  0  0
  7 10  1  0  0  0
 10 11  1  0  0  0
 10 12  1  0  0  0
 10 13  1  0  0  0
 13 14  1  0  0  0
 14 15  1  0  0  0
 15 16  1  0  0  0
 15 17  1  0  0  0
  1 18  2  0  0  0
 18 19  1  0  0  0
 19 20  2  0  0  0
 20 21  1  0  0  0
 21 22  2  0  0  0
 22 23  1  0  0  0
 23 24  2  0  0  0
 23 25  1  0  0  0
 22 26  1  0  0  0
 26 27  2  0  0  0
  9  4  1  0  0  0
 27 19  1  0  0  0
 15  6  1  0  0  0
 25 28  1  0  0  0
M  END
>  <CHROM.0>
-160.12843827,-176.56957645,-174.16691610,-179.14514930,175.00081653,67.48056765

>  <CHROM.1>
-173.12169680,-143.99501078,-173.98233698,-1.62512360,5.96582991,40.24124444
15.46059547,84.12689865,2.64822836,0.55280413,0.26375298

>  <RI>
0

>  <Rbt.Current_Directory>
/extra/banzai2/j5wagner/CELPP/2016_10_17_rdock_implementation/normal_run/tutorialVideo/tutorial_rdock_implementation/full_week_run/4-docking/1fcz/SMCSS_2lbd_docking

>  <Rbt.Executable>
rbdock ($Id: //depot/dev/client3/rdock/2013.1/src/exe/rbdock.cxx#4 $)

>  <Rbt.Library>
libRbt.so (2013.1, Build901 2013/11/27)

>  <Rbt.Parameter_File>
/home/j5wagner/env_00/source/rDock/rDock_2013.1_src//data/scripts/dock.prm

>  <Rbt.Receptor>
/extra/banzai2/j5wagner/CELPP/2016_10_17_rdock_implementation/normal_run/tutorialVideo/tutorial_rdock_implementation/full_week_run/4-docking/1fcz/SMCSS_2lbd_tech_prep/rDockGridGenInput.prm

>  <SCORE>
-38.036

>  <SCORE.INTER>
-28.4871

>  <SCORE.INTER.CONST>
1

>  <SCORE.INTER.POLAR>
-1.57552

>  <SCORE.INTER.REPUL>
0

>  <SCORE.INTER.ROT>
4

>  <SCORE.INTER.VDW>
-32.5303

>  <SCORE.INTER.norm>
-1.05508

>  <SCORE.INTRA>
-1.90622

>  <SCORE.INTRA.DIHEDRAL>
-5.28348

>  <SCORE.INTRA.DIHEDRAL.0>
10.7811

>  <SCORE.INTRA.POLAR>
0

>  <SCORE.INTRA.POLAR.0>
0

>  <SCORE.INTRA.REPUL>
0

>  <SCORE.INTRA.REPUL.0>
0

>  <SCORE.INTRA.VDW>
0.735526

>  <SCORE.INTRA.VDW.0>
-0.812999

>  <SCORE.INTRA.norm>
-0.0706006

>  <SCORE.RESTR>
0

>  <SCORE.RESTR.CAVITY>
0

>  <SCORE.RESTR.norm>
0

>  <SCORE.SYSTEM>
-7.64268

>  <SCORE.SYSTEM.CONST>
0

>  <SCORE.SYSTEM.DIHEDRAL>
1.16499

>  <SCORE.SYSTEM.POLAR>
-1.65748

>  <SCORE.SYSTEM.VDW>
-2.58974

>  <SCORE.SYSTEM.norm>
-0.283062

>  <SCORE.heavy>
27

>  <SCORE.norm>
-1.40874

$$$$

  rDOCK(R)          3D
libRbt.so/2013.1/901 2013/11/27
 28 30  0  0  0  0  0  0  0  0999 V2000
   38.7380   14.1835   85.2256 C   0  0  0  0  0  0
   39.7245   13.3664   84.4878 C   0  0  0  0  0  0
   39.5232   12.1248   84.4065 O   0  0  0  0  0  0
   40.9407   13.9375   83.8596 C   0  0  0  0  0  0
   41.4261   13.4034   82.6601 C   0  0  0  0  0  0
   42.6010   13.8989   82.0488 C   0  0  0  0  0  0
   43.2531   15.0259   82.6346 C   0  0  0  0  0  0
   42.7833   15.5057   83.8767 C   0  0  0  0  0  0
   41.6495   14.9692   84.4789 C   0  0  0  0  0  0
   44.4941   15.6790   82.0072 C   0  0  0  0  0  0
   44.3511   17.2215   81.9877 C   0  0  0  0  0  0
   45.7375   15.3079   82.8474 C   0  0  0  0  0  0
   44.6922   15.2288   80.5386 C   0  0  0  0  0  0
   44.5127   13.7255   80.3670 C   0  0  0  0  0  0
   43.0826   13.2589   80.7372 C   0  0  0  0  0  0
   43.1348   11.7157   80.8660 C   0  0  0  0  0  0
   42.0963   13.6281   79.6055 C   0  0  0  0  0  0
   38.7408   15.5245   85.1971 C   0  0  0  0  0  0
   37.7608   16.3696   85.9230 C   0  0  0  0  0  0
   37.7600   17.7753   85.8404 C   0  0  0  0  0  0
   36.8201   18.5280   86.5513 C   0  0  0  0  0  0
   35.8624   17.8953   87.3624 C   0  0  0  0  0  0
   34.8617   18.6810   88.1251 C   0  0  0  0  0  0
   33.9507   18.0850   88.7593 O   0  0  0  0  0  0
   34.8867   20.0750   88.1513 O   0  0  0  0  0  0
   35.8825   16.4942   87.4656 C   0  0  0  0  0  0
   36.8216   15.7418   86.7552 C   0  0  0  0  0  0
   34.2182   20.6228   88.6772 H   0  0  0  0  0  0
  1  2  1  0  0  0
  2  3  2  0  0  0
  2  4  1  0  0  0
  4  5  2  0  0  0
  5  6  1  0  0  0
  6  7  2  0  0  0
  7  8  1  0  0  0
  8  9  2  0  0  0
  7 10  1  0  0  0
 10 11  1  0  0  0
 10 12  1  0  0  0
 10 13  1  0  0  0
 13 14  1  0  0  0
 14 15  1  0  0  0
 15 16  1  0  0  0
 15 17  1  0  0  0
  1 18  2  0  0  0
 18 19  1  0  0  0
 19 20  2  0  0  0
 20 21  1  0  0  0
 21 22  2  0  0  0
 22 23  1  0  0  0
 23 24  2  0  0  0
 23 25  1  0  0  0
 22 26  1  0  0  0
 26 27  2  0  0  0
  9  4  1  0  0  0
 27 19  1  0  0  0
 15  6  1  0  0  0
 25 28  1  0  0  0
M  END
>  <CHROM.0>
-163.03452557,-57.08654955,-173.59879521,-179.63818527,65.21052303,171.45367795

>  <CHROM.1>
-169.32162751,-145.35843359,-177.85884919,174.41222631,-179.14596140,40.21048779
15.47929810,84.17830829,2.61914316,0.52857037,0.30125189

>  <RI>
0

>  <Rbt.Current_Directory>
/extra/banzai2/j5wagner/CELPP/2016_10_17_rdock_implementation/normal_run/tutorialVideo/tutorial_rdock_implementation/full_week_run/4-docking/1fcz/SMCSS_2lbd_docking

>  <Rbt.Executable>
rbdock ($Id: //depot/dev/client3/rdock/2013.1/src/exe/rbdock.cxx#4 $)

>  <Rbt.Library>
libRbt.so (2013.1, Build901 2013/11/27)

>  <Rbt.Parameter_File>
/home/j5wagner/env_00/source/rDock/rDock_2013.1_src//data/scripts/dock.prm

>  <Rbt.Receptor>
/extra/banzai2/j5wagner/CELPP/2016_10_17_rdock_implementation/normal_run/tutorialVideo/tutorial_rdock_implementation/full_week_run/4-docking/1fcz/SMCSS_2lbd_tech_prep/rDockGridGenInput.prm

>  <SCORE>
-37.9611

>  <SCORE.INTER>
-29.1003

>  <SCORE.INTER.CONST>
1

>  <SCORE.INTER.POLAR>
-1.66868

>  <SCORE.INTER.REPUL>
0

>  <SCORE.INTER.ROT>
4

>  <SCORE.INTER.VDW>
-32.8268

>  <SCORE.INTER.norm>
-1.07779

>  <SCORE.INTRA>
-2.05382

>  <SCORE.INTRA.DIHEDRAL>
-5.64096

>  <SCORE.INTRA.DIHEDRAL.0>
10.7811

>  <SCORE.INTRA.POLAR>
0

>  <SCORE.INTRA.POLAR.0>
0

>  <SCORE.INTRA.REPUL>
0

>  <SCORE.INTRA.REPUL.0>
0

>  <SCORE.INTRA.VDW>
0.766656

>  <SCORE.INTRA.VDW.0>
-0.812999

>  <SCORE.INTRA.norm>
-0.0760675

>  <SCORE.RESTR>
0

>  <SCORE.RESTR.CAVITY>
0

>  <SCORE.RESTR.norm>
0

>  <SCORE.SYSTEM>
-6.80695

>  <SCORE.SYSTEM.CONST>
0

>  <SCORE.SYSTEM.DIHEDRAL>
1.12185

>  <SCORE.SYSTEM.POLAR>
-1.64041

>  <SCORE.SYSTEM.VDW>
-1.79047

>  <SCORE.SYSTEM.norm>
-0.252109

>  <SCORE.heavy>
27

>  <SCORE.norm>
-1.40597

$$$$

  rDOCK(R)          3D
libRbt.so/2013.1/901 2013/11/27
 28 30  0  0  0  0  0  0  0  0999 V2000
   39.4390   14.6570   85.4670 C   0  0  0  0  0  0
   40.4204   13.6457   85.0206 C   0  0  0  0  0  0
   40.2531   12.4531   85.3925 O   0  0  0  0  0  0
   41.5942   13.9746   84.1757 C   0  0  0  0  0  0
   41.7842   13.3174   82.9543 C   0  0  0  0  0  0
   42.9083   13.5796   82.1374 C   0  0  0  0  0  0
   43.8214   14.6011   82.5387 C   0  0  0  0  0  0
   43.6448   15.2039   83.8033 C   0  0  0  0  0  0
   42.5526   14.8939   84.6077 C   0  0  0  0  0  0
   45.0328   15.0065   81.6853 C   0  0  0  0  0  0
   45.1410   16.5487   81.5845 C   0  0  0  0  0  0
   46.3196   14.4623   82.3469 C   0  0  0  0  0  0
   44.9128   14.4703   80.2372 C   0  0  0  0  0  0
   44.4660   13.0141   80.1966 C   0  0  0  0  0  0
   43.0590   12.8143   80.8132 C   0  0  0  0  0  0
   42.8801   11.2914   81.0357 C   0  0  0  0  0  0
   41.9744   13.3009   79.8247 C   0  0  0  0  0  0
   38.4989   14.3980   86.3882 C   0  0  0  0  0  0
   37.5049   15.3941   86.8587 C   0  0  0  0  0  0
   37.4968   16.7297   86.4129 C   0  0  0  0  0  0
   36.5436   17.6330   86.8934 C   0  0  0  0  0  0
   35.5797   17.2247   87.8312 C   0  0  0  0  0  0
   34.5648   18.1727   88.3525 C   0  0  0  0  0  0
   33.5650   17.7345   88.9815 O   0  0  0  0  0  0
   34.6739   19.5487   88.1537 O   0  0  0  0  0  0
   35.6069   15.8989   88.2959 C   0  0  0  0  0  0
   36.5592   14.9961   87.8158 C   0  0  0  0  0  0
   35.4477   19.9682   87.6551 H   0  0  0  0  0  0
  1  2  1  0  0  0
  2  3  2  0  0  0
  2  4  1  0  0  0
  4  5  2  0  0  0
  5  6  1  0  0  0
  6  7  2  0  0  0
  7  8  1  0  0  0
  8  9  2  0  0  0
  7 10  1  0  0  0
 10 11  1  0  0  0
 10 12  1  0  0  0
 10 13  1  0  0  0
 13 14  1  0  0  0
 14 15  1  0  0  0
 15 16  1  0  0  0
 15 17  1  0  0  0
  1 18  2  0  0  0
 18 19  1  0  0  0
 19 20  2  0  0  0
 20 21  1  0  0  0
 21 22  2  0  0  0
 22 23  1  0  0  0
 23 24  2  0  0  0
 23 25  1  0  0  0
 22 26  1  0  0  0
 26 27  2  0  0  0
  9  4  1  0  0  0
 27 19  1  0  0  0
 15  6  1  0  0  0
 25 28  1  0  0  0
M  END
>  <CHROM.0>
-159.07028267,-58.79697906,-177.67794319,59.43313316,-178.92016660,173.53562858

>  <CHROM.1>
9.45594349,-123.61610215,-2.68557619,166.26300860,-0.52271681,40.38485842
15.02169225,84.42788347,2.70738211,0.57179709,0.23145646

>  <RI>
0

>  <Rbt.Current_Directory>
/extra/banzai2/j5wagner/CELPP/2016_10_17_rdock_implementation/normal_run/tutorialVideo/tutorial_rdock_implementation/full_week_run/4-docking/1fcz/SMCSS_2lbd_docking

>  <Rbt.Executable>
rbdock ($Id: //depot/dev/client3/rdock/2013.1/src/exe/rbdock.cxx#4 $)

>  <Rbt.Library>
libRbt.so (2013.1, Build901 2013/11/27)

>  <Rbt.Parameter_File>
/home/j5wagner/env_00/source/rDock/rDock_2013.1_src//data/scripts/dock.prm

>  <Rbt.Receptor>
/extra/banzai2/j5wagner/CELPP/2016_10_17_rdock_implementation/normal_run/tutorialVideo/tutorial_rdock_implementation/full_week_run/4-docking/1fcz/SMCSS_2lbd_tech_prep/rDockGridGenInput.prm

>  <SCORE>
-37.663

>  <SCORE.INTER>
-30.3595

>  <SCORE.INTER.CONST>
1

>  <SCORE.INTER.POLAR>
-1.95577

>  <SCORE.INTER.REPUL>
0

>  <SCORE.INTER.ROT>
4

>  <SCORE.INTER.VDW>
-33.1099

>  <SCORE.INTER.norm>
-1.12443

>  <SCORE.INTRA>
0.00866856

>  <SCORE.INTRA.DIHEDRAL>
-0.426292

>  <SCORE.INTRA.DIHEDRAL.0>
10.7811

>  <SCORE.INTRA.POLAR>
0

>  <SCORE.INTRA.POLAR.0>
0

>  <SCORE.INTRA.REPUL>
0

>  <SCORE.INTRA.REPUL.0>
0

>  <SCORE.INTRA.VDW>
0.221814

>  <SCORE.INTRA.VDW.0>
-0.812999

>  <SCORE.INTRA.norm>
0.000321058

>  <SCORE.RESTR>
0

>  <SCORE.RESTR.CAVITY>
0

>  <SCORE.RESTR.norm>
0

>  <SCORE.SYSTEM>
-7.31224

>  <SCORE.SYSTEM.CONST>
0

>  <SCORE.SYSTEM.DIHEDRAL>
0.916417

>  <SCORE.SYSTEM.POLAR>
-1.65843

>  <SCORE.SYSTEM.VDW>
-2.13177

>  <SCORE.SYSTEM.norm>
-0.270824

>  <SCORE.heavy>
27

>  <SCORE.norm>
-1.39493

$$$$

  rDOCK(R)          3D
libRbt.so/2013.1/901 2013/11/27
 28 30  0  0  0  0  0  0  0  0999 V2000
   38.7712   14.1830   85.1257 C   0  0  0  0  0  0
   39.7703   13.3697   84.4006 C   0  0  0  0  0  0
   39.5713   12.1284   84.3108 O   0  0  0  0  0  0
   40.9961   13.9444   83.7948 C   0  0  0  0  0  0
   41.5133   13.4022   82.6124 C   0  0  0  0  0  0
   42.6981   13.9010   82.0232 C   0  0  0  0  0  0
   43.3275   15.0391   82.6122 C   0  0  0  0  0  0
   42.8253   15.5277   83.8381 C   0  0  0  0  0  0
   41.6822   14.9880   84.4195 C   0  0  0  0  0  0
   44.5775   15.6960   82.0069 C   0  0  0  0  0  0
   44.4228   17.2370   81.9682 C   0  0  0  0  0  0
   45.8040   15.3435   82.8793 C   0  0  0  0  0  0
   44.8130   15.2326   80.5479 C   0  0  0  0  0  0
   44.6495   13.7261   80.3878 C   0  0  0  0  0  0
   43.2150   13.2517   80.7297 C   0  0  0  0  0  0
   43.2763   11.7104   80.8756 C   0  0  0  0  0  0
   42.2522   13.6014   79.5718 C   0  0  0  0  0  0
   38.8083   15.5236   85.1515 C   0  0  0  0  0  0
   37.8170   16.3651   85.8661 C   0  0  0  0  0  0
   37.7822   17.7676   85.7458 C   0  0  0  0  0  0
   36.8330   18.5173   86.4474 C   0  0  0  0  0  0
   35.8997   17.8849   87.2867 C   0  0  0  0  0  0
   34.8895   18.6676   88.0399 C   0  0  0  0  0  0
   34.8652   19.9228   87.9339 O   0  0  0  0  0  0
   33.9642   18.0541   88.8837 O   0  0  0  0  0  0
   35.9539   16.4879   87.4273 C   0  0  0  0  0  0
   36.9023   15.7385   86.7261 C   0  0  0  0  0  0
   33.9925   17.0656   89.0977 H   0  0  0  0  0  0
  1  2  1  0  0  0
  2  3  2  0  0  0
  2  4  1  0  0  0
  4  5  2  0  0  0
  5  6  1  0  0  0
  6  7  2  0  0  0
  7  8  1  0  0  0
  8  9  2  0  0  0
  7 10  1  0  0  0
 10 11  1  0  0  0
 10 12  1  0  0  0
 10 13  1  0  0  0
 13 14  1  0  0  0
 14 15  1  0  0  0
 15 16  1  0  0  0
 15 17  1  0  0  0
  1 18  2  0  0  0
 18 19  1  0  0  0
 19 20  2  0  0  0
 20 21  1  0  0  0
 21 22  2  0  0  0
 22 23  1  0  0  0
 23 24  2  0  0  0
 23 25  1  0  0  0
 22 26  1  0  0  0
 26 27  2  0  0  0
  9  4  1  0  0  0
 27 19  1  0  0  0
 15  6  1  0  0  0
 25 28  1  0  0  0
M  END
>  <CHROM.0>
-168.82840743,-59.40014774,63.37801796,-179.08434076,175.78602839,171.73663998

>  <CHROM.1>
-172.35964464,-146.36424018,-172.09222159,-0.27415391,6.34586709,40.27601810
15.46304188,84.13772169,2.63083908,0.52328466,0.30052910

>  <RI>
0

>  <Rbt.Current_Directory>
/extra/banzai2/j5wagner/CELPP/2016_10_17_rdock_implementation/normal_run/tutorialVideo/tutorial_rdock_implementation/full_week_run/4-docking/1fcz/SMCSS_2lbd_docking

>  <Rbt.Executable>
rbdock ($Id: //depot/dev/client3/rdock/2013.1/src/exe/rbdock.cxx#4 $)

>  <Rbt.Library>
libRbt.so (2013.1, Build901 2013/11/27)

>  <Rbt.Parameter_File>
/home/j5wagner/env_00/source/rDock/rDock_2013.1_src//data/scripts/dock.prm

>  <Rbt.Receptor>
/extra/banzai2/j5wagner/CELPP/2016_10_17_rdock_implementation/normal_run/tutorialVideo/tutorial_rdock_implementation/full_week_run/4-docking/1fcz/SMCSS_2lbd_tech_prep/rDockGridGenInput.prm

>  <SCORE>
-37.5626

>  <SCORE.INTER>
-28.4811

>  <SCORE.INTER.CONST>
1

>  <SCORE.INTER.POLAR>
-1.48851

>  <SCORE.INTER.REPUL>
0

>  <SCORE.INTER.ROT>
4

>  <SCORE.INTER.VDW>
-32.8202

>  <SCORE.INTER.norm>
-1.05486

>  <SCORE.INTRA>
-2.00243

>  <SCORE.INTRA.DIHEDRAL>
-5.61306

>  <SCORE.INTRA.DIHEDRAL.0>
10.7811

>  <SCORE.INTRA.POLAR>
0

>  <SCORE.INTRA.POLAR.0>
0

>  <SCORE.INTRA.REPUL>
0

>  <SCORE.INTRA.REPUL.0>
0

>  <SCORE.INTRA.VDW>
0.804099

>  <SCORE.INTRA.VDW.0>
-0.812999

>  <SCORE.INTRA.norm>
-0.0741641

>  <SCORE.RESTR>
0

>  <SCORE.RESTR.CAVITY>
0

>  <SCORE.RESTR.norm>
0

>  <SCORE.SYSTEM>
-7.07901

>  <SCORE.SYSTEM.CONST>
0

>  <SCORE.SYSTEM.DIHEDRAL>
0.705521

>  <SCORE.SYSTEM.POLAR>
-1.60869

>  <SCORE.SYSTEM.VDW>
-1.96222

>  <SCORE.SYSTEM.norm>
-0.262186

>  <SCORE.heavy>
27

>  <SCORE.norm>
-1.39121

$$$$

  rDOCK(R)          3D
libRbt.so/2013.1/901 2013/11/27
 28 30  0  0  0  0  0  0  0  0999 V2000
   38.8822   14.1478   85.0774 C   0  0  0  0  0  0
   39.8587   13.2974   84.3641 C   0  0  0  0  0  0
   39.6347   12.0584   84.3067 O   0  0  0  0  0  0
   41.0900   13.8327   83.7339 C   0  0  0  0  0  0
   41.5688   13.2714   82.5442 C   0  0  0  0  0  0
   42.7570   13.7323   81.9316 C   0  0  0  0  0  0
   43.4313   14.8526   82.5048 C   0  0  0  0  0  0
   42.9667   15.3600   83.7378 C   0  0  0  0  0  0
   41.8187   14.8571   84.3421 C   0  0  0  0  0  0
   44.6892   15.4694   81.8743 C   0  0  0  0  0  0
   44.5805   17.0143   81.8327 C   0  0  0  0  0  0
   45.9204   15.0827   82.7254 C   0  0  0  0  0  0
   44.8837   14.9945   80.4130 C   0  0  0  0  0  0
   44.6719   13.4932   80.2615 C   0  0  0  0  0  0
   43.2302   13.0634   80.6313 C   0  0  0  0  0  0
   43.2476   11.5215   80.7818 C   0  0  0  0  0  0
   42.2572   13.4385   79.4899 C   0  0  0  0  0  0
   38.9060   15.4875   85.0156 C   0  0  0  0  0  0
   37.9366   16.3654   85.7163 C   0  0  0  0  0  0
   36.9903   15.8727   86.6352 C   0  0  0  0  0  0
   36.0917   16.7407   87.2635 C   0  0  0  0  0  0
   36.1154   18.1184   86.9866 C   0  0  0  0  0  0
   35.1659   19.0504   87.6427 C   0  0  0  0  0  0
   34.2383   18.5935   88.3625 O   0  0  0  0  0  0
   35.2576   20.4317   87.4748 O   0  0  0  0  0  0
   37.0417   18.6042   86.0484 C   0  0  0  0  0  0
   37.9398   17.7371   85.4207 C   0  0  0  0  0  0
   34.6221   21.0790   87.9227 H   0  0  0  0  0  0
  1  2  1  0  0  0
  2  3  2  0  0  0
  2  4  1  0  0  0
  4  5  2  0  0  0
  5  6  1  0  0  0
  6  7  2  0  0  0
  7  8  1  0  0  0
  8  9  2  0  0  0
  7 10  1  0  0  0
 10 11  1  0  0  0
 10 12  1  0  0  0
 10 13  1  0  0  0
 13 14  1  0  0  0
 14 15  1  0  0  0
 15 16  1  0  0  0
 15 17  1  0  0  0
  1 18  2  0  0  0
 18 19  1  0  0  0
 19 20  2  0  0  0
 20 21  1  0  0  0
 21 22  2  0  0  0
 22 23  1  0  0  0
 23 24  2  0  0  0
 23 25  1  0  0  0
 22 26  1  0  0  0
 26 27  2  0  0  0
  9  4  1  0  0  0
 27 19  1  0  0  0
 15  6  1  0  0  0
 25 28  1  0  0  0
M  END
>  <CHROM.0>
-160.77491536,-56.78345302,-176.34461542,-58.12371385,68.28245043,-58.63666575

>  <CHROM.1>
-168.94974706,-144.90054629,7.38889618,-6.87236038,-179.43793267,40.40063343
15.45126363,83.96544473,2.60055463,0.52088283,0.25092789

>  <RI>
0

>  <Rbt.Current_Directory>
/extra/banzai2/j5wagner/CELPP/2016_10_17_rdock_implementation/normal_run/tutorialVideo/tutorial_rdock_implementation/full_week_run/4-docking/1fcz/SMCSS_2lbd_docking

>  <Rbt.Executable>
rbdock ($Id: //depot/dev/client3/rdock/2013.1/src/exe/rbdock.cxx#4 $)

>  <Rbt.Library>
libRbt.so (2013.1, Build901 2013/11/27)

>  <Rbt.Parameter_File>
/home/j5wagner/env_00/source/rDock/rDock_2013.1_src//data/scripts/dock.prm

>  <Rbt.Receptor>
/extra/banzai2/j5wagner/CELPP/2016_10_17_rdock_implementation/normal_run/tutorialVideo/tutorial_rdock_implementation/full_week_run/4-docking/1fcz/SMCSS_2lbd_tech_prep/rDockGridGenInput.prm

>  <SCORE>
-36.9661

>  <SCORE.INTER>
-28.53

>  <SCORE.INTER.CONST>
1

>  <SCORE.INTER.POLAR>
-1.34075

>  <SCORE.INTER.REPUL>
0

>  <SCORE.INTER.ROT>
4

>  <SCORE.INTER.VDW>
-33.3715

>  <SCORE.INTER.norm>
-1.05667

>  <SCORE.INTRA>
-2.17441

>  <SCORE.INTRA.DIHEDRAL>
-5.22301

>  <SCORE.INTRA.DIHEDRAL.0>
10.7811

>  <SCORE.INTRA.POLAR>
0

>  <SCORE.INTRA.POLAR.0>
0

>  <SCORE.INTRA.REPUL>
0

>  <SCORE.INTRA.REPUL.0>
0

>  <SCORE.INTRA.VDW>
0.437091

>  <SCORE.INTRA.VDW.0>
-0.812999

>  <SCORE.INTRA.norm>
-0.0805339

>  <SCORE.RESTR>
0

>  <SCORE.RESTR.CAVITY>
0

>  <SCORE.RESTR.norm>
0

>  <SCORE.SYSTEM>
-6.26169

>  <SCORE.SYSTEM.CONST>
0

>  <SCORE.SYSTEM.DIHEDRAL>
1.01268

>  <SCORE.SYSTEM.POLAR>
-1.65363

>  <SCORE.SYSTEM.REPUL>
0.159161

>  <SCORE.SYSTEM.VDW>
-1.94148

>  <SCORE.SYSTEM.norm>
-0.231914

>  <SCORE.heavy>
27

>  <SCORE.norm>
-1.36912

$$$$

  rDOCK(R)          3D
libRbt.so/2013.1/901 2013/11/27
 28 30  0  0  0  0  0  0  0  0999 V2000
   39.2539   14.0246   85.9154 C   0  0  0  0  0  0
   40.3635   13.2879   85.2740 C   0  0  0  0  0  0
   40.4142   12.0384   85.4314 O   0  0  0  0  0  0
   41.4213   13.9527   84.4747 C   0  0  0  0  0  0
   41.7688   13.4488   83.2157 C   0  0  0  0  0  0
   42.7948   14.0349   82.4390 C   0  0  0  0  0  0
   43.4279   15.2189   82.9246 C   0  0  0  0  0  0
   43.1067   15.6706   84.2232 C   0  0  0  0  0  0
   42.1233   15.0469   84.9848 C   0  0  0  0  0  0
   44.5034   15.9675   82.1226 C   0  0  0  0  0  0
   44.2287   17.4922   82.1273 C   0  0  0  0  0  0
   45.8836   15.7112   82.7697 C   0  0  0  0  0  0
   44.5209   15.5201   80.6399 C   0  0  0  0  0  0
   44.4464   14.0053   80.4936 C   0  0  0  0  0  0
   43.1310   13.4239   81.0695 C   0  0  0  0  0  0
   43.3322   11.8920   81.1862 C   0  0  0  0  0  0
   41.9614   13.6968   80.0961 C   0  0  0  0  0  0
   39.0501   15.3369   85.7268 C   0  0  0  0  0  0
   37.9428   16.1007   86.3529 C   0  0  0  0  0  0
   36.9880   15.5021   87.1971 C   0  0  0  0  0  0
   35.9575   16.2641   87.7564 C   0  0  0  0  0  0
   35.8550   17.6390   87.4835 C   0  0  0  0  0  0
   34.7652   18.4591   88.0667 C   0  0  0  0  0  0
   33.9052   17.9173   88.8112 O   0  0  0  0  0  0
   34.6503   19.8236   87.8028 O   0  0  0  0  0  0
   36.7922   18.2288   86.6186 C   0  0  0  0  0  0
   37.8222   17.4676   86.0597 C   0  0  0  0  0  0
   35.2802   20.3139   87.1812 H   0  0  0  0  0  0
  1  2  1  0  0  0
  2  3  2  0  0  0
  2  4  1  0  0  0
  4  5  2  0  0  0
  5  6  1  0  0  0
  6  7  2  0  0  0
  7  8  1  0  0  0
  8  9  2  0  0  0
  7 10  1  0  0  0
 10 11  1  0  0  0
 10 12  1  0  0  0
 10 13  1  0  0  0
 13 14  1  0  0  0
 14 15  1  0  0  0
 15 16  1  0  0  0
 15 17  1  0  0  0
  1 18  2  0  0  0
 18 19  1  0  0  0
 19 20  2  0  0  0
 20 21  1  0  0  0
 21 22  2  0  0  0
 22 23  1  0  0  0
 23 24  2  0  0  0
 23 25  1  0  0  0
 22 26  1  0  0  0
 26 27  2  0  0  0
  9  4  1  0  0  0
 27 19  1  0  0  0
 15  6  1  0  0  0
 25 28  1  0  0  0
M  END
>  <CHROM.0>
28.41610602,60.95515653,-56.59326852,-51.84485111,63.62508442,-57.17597513

>  <CHROM.1>
-174.76055543,-131.72458536,-0.83104899,-0.66333286,2.08296258,40.36900528
15.47465464,84.48243501,2.81070129,0.61435253,0.03250735

>  <RI>
0

>  <Rbt.Current_Directory>
/extra/banzai2/j5wagner/CELPP/2016_10_17_rdock_implementation/normal_run/tutorialVideo/tutorial_rdock_implementation/full_week_run/4-docking/1fcz/SMCSS_2lbd_docking

>  <Rbt.Executable>
rbdock ($Id: //depot/dev/client3/rdock/2013.1/src/exe/rbdock.cxx#4 $)

>  <Rbt.Library>
libRbt.so (2013.1, Build901 2013/11/27)

>  <Rbt.Parameter_File>
/home/j5wagner/env_00/source/rDock/rDock_2013.1_src//data/scripts/dock.prm

>  <Rbt.Receptor>
/extra/banzai2/j5wagner/CELPP/2016_10_17_rdock_implementation/normal_run/tutorialVideo/tutorial_rdock_implementation/full_week_run/4-docking/1fcz/SMCSS_2lbd_tech_prep/rDockGridGenInput.prm

>  <SCORE>
-36.6959

>  <SCORE.INTER>
-32.7472

>  <SCORE.INTER.CONST>
1

>  <SCORE.INTER.POLAR>
-2.66258

>  <SCORE.INTER.REPUL>
0

>  <SCORE.INTER.ROT>
4

>  <SCORE.INTER.VDW>
-33.0944

>  <SCORE.INTER.norm>
-1.21286

>  <SCORE.INTRA>
-1.41378

>  <SCORE.INTRA.DIHEDRAL>
-3.0802

>  <SCORE.INTRA.DIHEDRAL.0>
10.7811

>  <SCORE.INTRA.POLAR>
0

>  <SCORE.INTRA.POLAR.0>
0

>  <SCORE.INTRA.REPUL>
0

>  <SCORE.INTRA.REPUL.0>
0

>  <SCORE.INTRA.VDW>
0.126323

>  <SCORE.INTRA.VDW.0>
-0.812999

>  <SCORE.INTRA.norm>
-0.0523621

>  <SCORE.RESTR>
0

>  <SCORE.RESTR.CAVITY>
0

>  <SCORE.RESTR.norm>
0

>  <SCORE.SYSTEM>
-2.53492

>  <SCORE.SYSTEM.CONST>
0

>  <SCORE.SYSTEM.DIHEDRAL>
1.46283

>  <SCORE.SYSTEM.POLAR>
-0.990203

>  <SCORE.SYSTEM.REPUL>
0.319489

>  <SCORE.SYSTEM.VDW>
-1.49709

>  <SCORE.SYSTEM.norm>
-0.093886

>  <SCORE.heavy>
27

>  <SCORE.norm>
-1.35911

$$$$

  rDOCK(R)          3D
libRbt.so/2013.1/901 2013/11/27
 28 30  0  0  0  0  0  0  0  0999 V2000
   40.2486   15.7126   85.5562 C   0  0  0  0  0  0
   41.5721   15.8957   84.9238 C   0  0  0  0  0  0
   42.3362   16.7808   85.3944 O   0  0  0  0  0  0
   42.0288   15.1016   83.7574 C   0  0  0  0  0  0
   43.3106   15.3026   83.2318 C   0  0  0  0  0  0
   43.7692   14.5888   82.1004 C   0  0  0  0  0  0
   42.9264   13.5821   81.5397 C   0  0  0  0  0  0
   41.6154   13.4424   82.0454 C   0  0  0  0  0  0
   41.1745   14.1905   83.1324 C   0  0  0  0  0  0
   43.3628   12.7067   80.3550 C   0  0  0  0  0  0
   43.0264   11.2178   80.6203 C   0  0  0  0  0  0
   42.6095   13.1656   79.0855 C   0  0  0  0  0  0
   44.8920   12.7860   80.1228 C   0  0  0  0  0  0
   45.4109   14.2174   80.1821 C   0  0  0  0  0  0
   45.1847   14.8668   81.5703 C   0  0  0  0  0  0
   45.4165   16.3887   81.3955 C   0  0  0  0  0  0
   46.2173   14.3219   82.5837 C   0  0  0  0  0  0
   39.6203   16.6940   86.2205 C   0  0  0  0  0  0
   38.2904   16.5405   86.8603 C   0  0  0  0  0  0
   37.7432   15.2845   87.1857 C   0  0  0  0  0  0
   36.4810   15.1923   87.7804 C   0  0  0  0  0  0
   35.7357   16.3504   88.0607 C   0  0  0  0  0  0
   34.3939   16.2677   88.6878 C   0  0  0  0  0  0
   33.7556   17.3243   88.9400 O   0  0  0  0  0  0
   33.8148   15.0450   89.0259 O   0  0  0  0  0  0
   36.2712   17.6011   87.7097 C   0  0  0  0  0  0
   37.5326   17.6935   87.1156 C   0  0  0  0  0  0
   34.2921   14.1619   88.8999 H   0  0  0  0  0  0
  1  2  1  0  0  0
  2  3  2  0  0  0
  2  4  1  0  0  0
  4  5  2  0  0  0
  5  6  1  0  0  0
  6  7  2  0  0  0
  7  8  1  0  0  0
  8  9  2  0  0  0
  7 10  1  0  0  0
 10 11  1  0  0  0
 10 12  1  0  0  0
 10 13  1  0  0  0
 13 14  1  0  0  0
 14 15  1  0  0  0
 15 16  1  0  0  0
 15 17  1  0  0  0
  1 18  2  0  0  0
 18 19  1  0  0  0
 19 20  2  0  0  0
 20 21  1  0  0  0
 21 22  2  0  0  0
 22 23  1  0  0  0
 23 24  2  0  0  0
 23 25  1  0  0  0
 22 26  1  0  0  0
 26 27  2  0  0  0
  9  4  1  0  0  0
 27 19  1  0  0  0
 15  6  1  0  0  0
 25 28  1  0  0  0
M  END
>  <CHROM.0>
-162.46256423,-177.45323924,63.66404004,-57.75703353,66.66842015,171.21422284

>  <CHROM.1>
25.74026060,-178.22965837,19.74858853,179.25084164,2.76011961,40.67872996
15.11080973,84.26999731,-2.52557424,-0.39342528,-2.40987576

>  <RI>
0

>  <Rbt.Current_Directory>
/extra/banzai2/j5wagner/CELPP/2016_10_17_rdock_implementation/normal_run/tutorialVideo/tutorial_rdock_implementation/full_week_run/4-docking/1fcz/SMCSS_2lbd_docking

>  <Rbt.Executable>
rbdock ($Id: //depot/dev/client3/rdock/2013.1/src/exe/rbdock.cxx#4 $)

>  <Rbt.Library>
libRbt.so (2013.1, Build901 2013/11/27)

>  <Rbt.Parameter_File>
/home/j5wagner/env_00/source/rDock/rDock_2013.1_src//data/scripts/dock.prm

>  <Rbt.Receptor>
/extra/banzai2/j5wagner/CELPP/2016_10_17_rdock_implementation/normal_run/tutorialVideo/tutorial_rdock_implementation/full_week_run/4-docking/1fcz/SMCSS_2lbd_tech_prep/rDockGridGenInput.prm

>  <SCORE>
-36.1265

>  <SCORE.INTER>
-26.7503

>  <SCORE.INTER.CONST>
1

>  <SCORE.INTER.POLAR>
-1.43831

>  <SCORE.INTER.REPUL>
0

>  <SCORE.INTER.ROT>
4

>  <SCORE.INTER.VDW>
-31.2601

>  <SCORE.INTER.norm>
-0.990753

>  <SCORE.INTRA>
-2.6644

>  <SCORE.INTRA.DIHEDRAL>
-6.83014

>  <SCORE.INTRA.DIHEDRAL.0>
10.7811

>  <SCORE.INTRA.POLAR>
0

>  <SCORE.INTRA.POLAR.0>
0

>  <SCORE.INTRA.REPUL>
0

>  <SCORE.INTRA.REPUL.0>
0

>  <SCORE.INTRA.VDW>
0.750665

>  <SCORE.INTRA.VDW.0>
-0.812999

>  <SCORE.INTRA.norm>
-0.0986817

>  <SCORE.RESTR>
0

>  <SCORE.RESTR.CAVITY>
0

>  <SCORE.RESTR.norm>
0

>  <SCORE.SYSTEM>
-6.71174

>  <SCORE.SYSTEM.CONST>
0

>  <SCORE.SYSTEM.DIHEDRAL>
1.16774

>  <SCORE.SYSTEM.POLAR>
-1.64372

>  <SCORE.SYSTEM.VDW>
-1.70695

>  <SCORE.SYSTEM.norm>
-0.248583

>  <SCORE.heavy>
27

>  <SCORE.norm>
-1.33802

$$$$

  rDOCK(R)          3D
libRbt.so/2013.1/901 2013/11/27
 28 30  0  0  0  0  0  0  0  0999 V2000
   38.7272   14.1166   85.2238 C   0  0  0  0  0  0
   39.7121   13.3066   84.4761 C   0  0  0  0  0  0
   39.5015   12.0686   84.3684 O   0  0  0  0  0  0
   40.9369   13.8805   83.8675 C   0  0  0  0  0  0
   41.4305   13.3617   82.6647 C   0  0  0  0  0  0
   42.6135   13.8599   82.0715 C   0  0  0  0  0  0
   43.2660   14.9746   82.6798 C   0  0  0  0  0  0
   42.7875   15.4384   83.9246 C   0  0  0  0  0  0
   41.6455   14.8991   84.5085 C   0  0  0  0  0  0
   44.5161   15.6302   82.0735 C   0  0  0  0  0  0
   44.3814   17.1737   82.0756 C   0  0  0  0  0  0
   45.7499   15.2401   82.9193 C   0  0  0  0  0  0
   44.7252   15.2009   80.6001 C   0  0  0  0  0  0
   44.5395   13.7012   80.4046 C   0  0  0  0  0  0
   43.1037   13.2368   80.7549 C   0  0  0  0  0  0
   43.1466   11.6917   80.8611 C   0  0  0  0  0  0
   42.1296   13.6281   79.6199 C   0  0  0  0  0  0
   38.7425   15.4578   85.2247 C   0  0  0  0  0  0
   37.7645   16.2960   85.9612 C   0  0  0  0  0  0
   37.7697   17.7027   85.8998 C   0  0  0  0  0  0
   36.8313   18.4485   86.6200 C   0  0  0  0  0  0
   35.8694   17.8077   87.4196 C   0  0  0  0  0  0
   34.8702   18.5860   88.1919 C   0  0  0  0  0  0
   33.9172   17.9895   88.7605 O   0  0  0  0  0  0
   34.9429   19.9745   88.2982 O   0  0  0  0  0  0
   35.8835   16.4051   87.5018 C   0  0  0  0  0  0
   36.8209   15.6596   86.7820 C   0  0  0  0  0  0
   34.2819   20.5155   88.8405 H   0  0  0  0  0  0
  1  2  1  0  0  0
  2  3  2  0  0  0
  2  4  1  0  0  0
  4  5  2  0  0  0
  5  6  1  0  0  0
  6  7  2  0  0  0
  7  8  1  0  0  0
  8  9  2  0  0  0
  7 10  1  0  0  0
 10 11  1  0  0  0
 10 12  1  0  0  0
 10 13  1  0  0  0
 13 14  1  0  0  0
 14 15  1  0  0  0
 15 16  1  0  0  0
 15 17  1  0  0  0
  1 18  2  0  0  0
 18 19  1  0  0  0
 19 20  2  0  0  0
 20 21  1  0  0  0
 21 22  2  0  0  0
 22 23  1  0  0  0
 23 24  2  0  0  0
 23 25  1  0  0  0
 22 26  1  0  0  0
 26 27  2  0  0  0
  9  4  1  0  0  0
 27 19  1  0  0  0
 15  6  1  0  0  0
 25 28  1  0  0  0
M  END
>  <CHROM.0>
-161.31854916,-57.79946835,62.25728093,59.10752055,179.50466445,172.54781593

>  <CHROM.1>
-169.46360944,-145.73020497,-177.26734011,170.90221320,-178.42804913,40.21962930
15.41950940,84.21549706,2.61144030,0.51898537,0.32614673

>  <RI>
0

>  <Rbt.Current_Directory>
/extra/banzai2/j5wagner/CELPP/2016_10_17_rdock_implementation/normal_run/tutorialVideo/tutorial_rdock_implementation/full_week_run/4-docking/1fcz/SMCSS_2lbd_docking

>  <Rbt.Executable>
rbdock ($Id: //depot/dev/client3/rdock/2013.1/src/exe/rbdock.cxx#4 $)

>  <Rbt.Library>
libRbt.so (2013.1, Build901 2013/11/27)

>  <Rbt.Parameter_File>
/home/j5wagner/env_00/source/rDock/rDock_2013.1_src//data/scripts/dock.prm

>  <Rbt.Receptor>
/extra/banzai2/j5wagner/CELPP/2016_10_17_rdock_implementation/normal_run/tutorialVideo/tutorial_rdock_implementation/full_week_run/4-docking/1fcz/SMCSS_2lbd_tech_prep/rDockGridGenInput.prm

>  <SCORE>
-35.9936

>  <SCORE.INTER>
-26.827

>  <SCORE.INTER.CONST>
1

>  <SCORE.INTER.POLAR>
-1.03926

>  <SCORE.INTER.REPUL>
0

>  <SCORE.INTER.ROT>
4

>  <SCORE.INTER.VDW>
-32.6936

>  <SCORE.INTER.norm>
-0.993594

>  <SCORE.INTRA>
-1.97809

>  <SCORE.INTRA.DIHEDRAL>
-5.49261

>  <SCORE.INTRA.DIHEDRAL.0>
10.7811

>  <SCORE.INTRA.POLAR>
0

>  <SCORE.INTRA.POLAR.0>
0

>  <SCORE.INTRA.REPUL>
0

>  <SCORE.INTRA.REPUL.0>
0

>  <SCORE.INTRA.VDW>
0.768215

>  <SCORE.INTRA.VDW.0>
-0.812999

>  <SCORE.INTRA.norm>
-0.0732626

>  <SCORE.RESTR>
0

>  <SCORE.RESTR.CAVITY>
0

>  <SCORE.RESTR.norm>
0

>  <SCORE.SYSTEM>
-7.18851

>  <SCORE.SYSTEM.CONST>
0

>  <SCORE.SYSTEM.DIHEDRAL>
0.863891

>  <SCORE.SYSTEM.POLAR>
-1.65042

>  <SCORE.SYSTEM.VDW>
-2.00904

>  <SCORE.SYSTEM.norm>
-0.266241

>  <SCORE.heavy>
27

>  <SCORE.norm>
-1.3331

$$$$

  rDOCK(R)          3D
libRbt.so/2013.1/901 2013/11/27
 28 30  0  0  0  0  0  0  0  0999 V2000
   38.8789   14.0676   85.5078 C   0  0  0  0  0  0
   39.9337   13.3051   84.8068 C   0  0  0  0  0  0
   39.8598   12.0469   84.8150 O   0  0  0  0  0  0
   41.0758   13.9512   84.1155 C   0  0  0  0  0  0
   41.5201   13.4558   82.8839 C   0  0  0  0  0  0
   42.6265   14.0239   82.2110 C   0  0  0  0  0  0
   43.2454   15.1824   82.7704 C   0  0  0  0  0  0
   42.8224   15.6243   84.0430 C   0  0  0  0  0  0
   41.7588   15.0177   84.7040 C   0  0  0  0  0  0
   44.4077   15.9118   82.0793 C   0  0  0  0  0  0
   44.1747   17.4434   82.0854 C   0  0  0  0  0  0
   45.7176   15.6074   82.8417 C   0  0  0  0  0  0
   44.5449   15.4854   80.5967 C   0  0  0  0  0  0
   44.4430   13.9755   80.4190 C   0  0  0  0  0  0
   43.0665   13.4233   80.8665 C   0  0  0  0  0  0
   43.2154   11.8849   80.9748 C   0  0  0  0  0  0
   41.9958   13.7431   79.7982 C   0  0  0  0  0  0
   38.8486   15.4084   85.5330 C   0  0  0  0  0  0
   37.8005   16.1996   86.2236 C   0  0  0  0  0  0
   37.7212   17.6023   86.1306 C   0  0  0  0  0  0
   36.7187   18.3035   86.8081 C   0  0  0  0  0  0
   35.7755   17.6211   87.5955 C   0  0  0  0  0  0
   34.7089   18.3519   88.3228 C   0  0  0  0  0  0
   33.8143   17.7079   88.9329 O   0  0  0  0  0  0
   34.6539   19.7452   88.3410 O   0  0  0  0  0  0
   35.8732   16.2241   87.7096 C   0  0  0  0  0  0
   36.8747   15.5233   87.0326 C   0  0  0  0  0  0
   35.3455   20.3245   87.8831 H   0  0  0  0  0  0
  1  2  1  0  0  0
  2  3  2  0  0  0
  2  4  1  0  0  0
  4  5  2  0  0  0
  5  6  1  0  0  0
  6  7  2  0  0  0
  7  8  1  0  0  0
  8  9  2  0  0  0
  7 10  1  0  0  0
 10 11  1  0  0  0
 10 12  1  0  0  0
 10 13  1  0  0  0
 13 14  1  0  0  0
 14 15  1  0  0  0
 15 16  1  0  0  0
 15 17  1  0  0  0
  1 18  2  0  0  0
 18 19  1  0  0  0
 19 20  2  0  0  0
 20 21  1  0  0  0
 21 22  2  0  0  0
 22 23  1  0  0  0
 23 24  2  0  0  0
 23 25  1  0  0  0
 22 26  1  0  0  0
 26 27  2  0  0  0
  9  4  1  0  0  0
 27 19  1  0  0  0
 15  6  1  0  0  0
 25 28  1  0  0  0
M  END
>  <CHROM.0>
-0.41064457,-55.75970243,-58.83967156,176.89793235,-175.52427707,173.31318837

>  <CHROM.1>
-178.45753279,-139.67515374,-173.89984291,174.31509903,-1.57938092,40.21097125
15.45985723,84.37326075,2.70235592,0.57818421,0.22730434

>  <RI>
0

>  <Rbt.Current_Directory>
/extra/banzai2/j5wagner/CELPP/2016_10_17_rdock_implementation/normal_run/tutorialVideo/tutorial_rdock_implementation/full_week_run/4-docking/1fcz/SMCSS_2lbd_docking

>  <Rbt.Executable>
rbdock ($Id: //depot/dev/client3/rdock/2013.1/src/exe/rbdock.cxx#4 $)

>  <Rbt.Library>
libRbt.so (2013.1, Build901 2013/11/27)

>  <Rbt.Parameter_File>
/home/j5wagner/env_00/source/rDock/rDock_2013.1_src//data/scripts/dock.prm

>  <Rbt.Receptor>
/extra/banzai2/j5wagner/CELPP/2016_10_17_rdock_implementation/normal_run/tutorialVideo/tutorial_rdock_implementation/full_week_run/4-docking/1fcz/SMCSS_2lbd_tech_prep/rDockGridGenInput.prm

>  <SCORE>
-35.9889

>  <SCORE.INTER>
-30.2426

>  <SCORE.INTER.CONST>
1

>  <SCORE.INTER.POLAR>
-1.91877

>  <SCORE.INTER.REPUL>
0

>  <SCORE.INTER.ROT>
4

>  <SCORE.INTER.VDW>
-33.1188

>  <SCORE.INTER.norm>
-1.1201

>  <SCORE.INTRA>
-1.66195

>  <SCORE.INTRA.DIHEDRAL>
-4.64947

>  <SCORE.INTRA.DIHEDRAL.0>
10.7811

>  <SCORE.INTRA.POLAR>
0

>  <SCORE.INTRA.POLAR.0>
0

>  <SCORE.INTRA.REPUL>
0

>  <SCORE.INTRA.REPUL.0>
0

>  <SCORE.INTRA.VDW>
0.662779

>  <SCORE.INTRA.VDW.0>
-0.812999

>  <SCORE.INTRA.norm>
-0.0615539

>  <SCORE.RESTR>
0

>  <SCORE.RESTR.CAVITY>
0

>  <SCORE.RESTR.norm>
0

>  <SCORE.SYSTEM>
-4.08439

>  <SCORE.SYSTEM.CONST>
0

>  <SCORE.SYSTEM.DIHEDRAL>
0.436839

>  <SCORE.SYSTEM.POLAR>
-0.990203

>  <SCORE.SYSTEM.REPUL>
0.154229

>  <SCORE.SYSTEM.VDW>
-1.70726

>  <SCORE.SYSTEM.norm>
-0.151274

>  <SCORE.heavy>
27

>  <SCORE.norm>
-1.33292

$$$$

  rDOCK(R)          3D
libRbt.so/2013.1/901 2013/11/27
 28 30  0  0  0  0  0  0  0  0999 V2000
   38.9366   14.0716   85.5821 C   0  0  0  0  0  0
   39.9917   13.3005   84.8910 C   0  0  0  0  0  0
   39.9285   12.0424   84.9309 O   0  0  0  0  0  0
   41.1224   13.9386   84.1738 C   0  0  0  0  0  0
   41.5742   13.4036   82.9617 C   0  0  0  0  0  0
   42.6704   13.9638   82.2659 C   0  0  0  0  0  0
   43.2701   15.1533   82.7795 C   0  0  0  0  0  0
   42.8405   15.6367   84.0347 C   0  0  0  0  0  0
   41.7877   15.0383   84.7199 C   0  0  0  0  0  0
   44.4195   15.8749   82.0594 C   0  0  0  0  0  0
   44.1608   17.4015   82.0067 C   0  0  0  0  0  0
   45.7348   15.6222   82.8312 C   0  0  0  0  0  0
   44.5629   15.3941   80.5941 C   0  0  0  0  0  0
   44.4864   13.8770   80.4748 C   0  0  0  0  0  0
   43.1196   13.3193   80.9450 C   0  0  0  0  0  0
   43.2944   11.7890   81.1122 C   0  0  0  0  0  0
   42.0430   13.5797   79.8666 C   0  0  0  0  0  0
   38.8749   15.4110   85.5446 C   0  0  0  0  0  0
   37.8255   16.2102   86.2239 C   0  0  0  0  0  0
   37.7433   17.6113   86.1100 C   0  0  0  0  0  0
   36.7398   18.3204   86.7775 C   0  0  0  0  0  0
   35.7984   17.6481   87.5755 C   0  0  0  0  0  0
   34.7307   18.3875   88.2923 C   0  0  0  0  0  0
   33.8402   17.7509   88.9161 O   0  0  0  0  0  0
   34.6701   19.7807   88.2858 O   0  0  0  0  0  0
   35.8990   16.2531   87.7105 C   0  0  0  0  0  0
   36.9016   15.5442   87.0435 C   0  0  0  0  0  0
   35.3565   20.3544   87.8133 H   0  0  0  0  0  0
  1  2  1  0  0  0
  2  3  2  0  0  0
  2  4  1  0  0  0
  4  5  2  0  0  0
  5  6  1  0  0  0
  6  7  2  0  0  0
  7  8  1  0  0  0
  8  9  2  0  0  0
  7 10  1  0  0  0
 10 11  1  0  0  0
 10 12  1  0  0  0
 10 13  1  0  0  0
 13 14  1  0  0  0
 14 15  1  0  0  0
 15 16  1  0  0  0
 15 17  1  0  0  0
  1 18  2  0  0  0
 18 19  1  0  0  0
 19 20  2  0  0  0
 20 21  1  0  0  0
 21 22  2  0  0  0
 22 23  1  0  0  0
 23 24  2  0  0  0
 23 25  1  0  0  0
 22 26  1  0  0  0
 26 27  2  0  0  0
  9  4  1  0  0  0
 27 19  1  0  0  0
 15  6  1  0  0  0
 25 28  1  0  0  0
M  END
>  <CHROM.0>
-16.24238145,-56.85746965,62.75518502,-55.46211367,179.58910929,171.39205386

>  <CHROM.1>
-176.62722014,-140.70103210,-176.54461912,174.54570584,-1.37290177,40.24393106
15.44048312,84.39376376,2.71305290,0.58470741,0.19248218

>  <RI>
0

>  <Rbt.Current_Directory>
/extra/banzai2/j5wagner/CELPP/2016_10_17_rdock_implementation/normal_run/tutorialVideo/tutorial_rdock_implementation/full_week_run/4-docking/1fcz/SMCSS_2lbd_docking

>  <Rbt.Executable>
rbdock ($Id: //depot/dev/client3/rdock/2013.1/src/exe/rbdock.cxx#4 $)

>  <Rbt.Library>
libRbt.so (2013.1, Build901 2013/11/27)

>  <Rbt.Parameter_File>
/home/j5wagner/env_00/source/rDock/rDock_2013.1_src//data/scripts/dock.prm

>  <Rbt.Receptor>
/extra/banzai2/j5wagner/CELPP/2016_10_17_rdock_implementation/normal_run/tutorialVideo/tutorial_rdock_implementation/full_week_run/4-docking/1fcz/SMCSS_2lbd_tech_prep/rDockGridGenInput.prm

>  <SCORE>
-35.8956

>  <SCORE.INTER>
-30.1559

>  <SCORE.INTER.CONST>
1

>  <SCORE.INTER.POLAR>
-1.91812

>  <SCORE.INTER.REPUL>
0

>  <SCORE.INTER.ROT>
4

>  <SCORE.INTER.VDW>
-33.0343

>  <SCORE.INTER.norm>
-1.11689

>  <SCORE.INTRA>
-1.79722

>  <SCORE.INTRA.DIHEDRAL>
-4.97093

>  <SCORE.INTRA.DIHEDRAL.0>
10.7811

>  <SCORE.INTRA.POLAR>
0

>  <SCORE.INTRA.POLAR.0>
0

>  <SCORE.INTRA.REPUL>
0

>  <SCORE.INTRA.REPUL.0>
0

>  <SCORE.INTRA.VDW>
0.688248

>  <SCORE.INTRA.VDW.0>
-0.812999

>  <SCORE.INTRA.norm>
-0.0665636

>  <SCORE.RESTR>
0

>  <SCORE.RESTR.CAVITY>
0

>  <SCORE.RESTR.norm>
0

>  <SCORE.SYSTEM>
-3.94243

>  <SCORE.SYSTEM.CONST>
0

>  <SCORE.SYSTEM.DIHEDRAL>
0.8671

>  <SCORE.SYSTEM.POLAR>
-0.990203

>  <SCORE.SYSTEM.REPUL>
0.154229

>  <SCORE.SYSTEM.VDW>
-1.78044

>  <SCORE.SYSTEM.norm>
-0.146016

>  <SCORE.heavy>
27

>  <SCORE.norm>
-1.32947

$$$$

  rDOCK(R)          3D
libRbt.so/2013.1/901 2013/11/27
 28 30  0  0  0  0  0  0  0  0999 V2000
   39.4112   14.4079   85.2684 C   0  0  0  0  0  0
   40.3388   13.3225   84.8855 C   0  0  0  0  0  0
   40.0463   12.1451   85.2272 O   0  0  0  0  0  0
   41.5979   13.5597   84.1384 C   0  0  0  0  0  0
   42.1232   14.8539   84.0442 C   0  0  0  0  0  0
   43.3028   15.1247   83.3128 C   0  0  0  0  0  0
   44.0118   14.0311   82.7300 C   0  0  0  0  0  0
   43.4297   12.7458   82.7830 C   0  0  0  0  0  0
   42.2432   12.5155   83.4724 C   0  0  0  0  0  0
   45.3380   14.2154   81.9766 C   0  0  0  0  0  0
   46.3749   13.1551   82.4246 C   0  0  0  0  0  0
   45.0835   14.0492   80.4609 C   0  0  0  0  0  0
   45.9648   15.6030   82.2607 C   0  0  0  0  0  0
   44.9381   16.7262   82.1841 C   0  0  0  0  0  0
   43.8180   16.5709   83.2429 C   0  0  0  0  0  0
   42.6799   17.5402   82.8357 C   0  0  0  0  0  0
   44.3459   16.9846   84.6358 C   0  0  0  0  0  0
   38.5291   14.2877   86.2717 C   0  0  0  0  0  0
   37.5902   15.3612   86.6811 C   0  0  0  0  0  0
   37.5712   16.6293   86.0694 C   0  0  0  0  0  0
   36.6722   17.6110   86.4975 C   0  0  0  0  0  0
   35.7746   17.3504   87.5472 C   0  0  0  0  0  0
   34.8178   18.3833   88.0144 C   0  0  0  0  0  0
   34.8104   19.5199   87.4708 O   0  0  0  0  0  0
   33.9258   18.1403   89.0584 O   0  0  0  0  0  0
   35.8141   16.0940   88.1750 C   0  0  0  0  0  0
   36.7123   15.1128   87.7471 C   0  0  0  0  0  0
   34.0051   17.3366   89.6677 H   0  0  0  0  0  0
  1  2  1  0  0  0
  2  3  2  0  0  0
  2  4  1  0  0  0
  4  5  2  0  0  0
  5  6  1  0  0  0
  6  7  2  0  0  0
  7  8  1  0  0  0
  8  9  2  0  0  0
  7 10  1  0  0  0
 10 11  1  0  0  0
 10 12  1  0  0  0
 10 13  1  0  0  0
 13 14  1  0  0  0
 14 15  1  0  0  0
 15 16  1  0  0  0
 15 17  1  0  0  0
  1 18  2  0  0  0
 18 19  1  0  0  0
 19 20  2  0  0  0
 20 21  1  0  0  0
 21 22  2  0  0  0
 22 23  1  0  0  0
 23 24  2  0  0  0
 23 25  1  0  0  0
 22 26  1  0  0  0
 26 27  2  0  0  0
  9  4  1  0  0  0
 27 19  1  0  0  0
 15  6  1  0  0  0
 25 28  1  0  0  0
M  END
>  <CHROM.0>
-161.89901275,-171.57139584,-54.03939030,-179.46493656,176.26953347,172.35244935

>  <CHROM.1>
20.99822680,15.55535316,-1.96459803,-0.47980273,12.71944860,40.62601088,15.45055352
84.80575644,2.88642920,0.52526695,0.00105030

>  <RI>
0

>  <Rbt.Current_Directory>
/extra/banzai2/j5wagner/CELPP/2016_10_17_rdock_implementation/normal_run/tutorialVideo/tutorial_rdock_implementation/full_week_run/4-docking/1fcz/SMCSS_2lbd_docking

>  <Rbt.Executable>
rbdock ($Id: //depot/dev/client3/rdock/2013.1/src/exe/rbdock.cxx#4 $)

>  <Rbt.Library>
libRbt.so (2013.1, Build901 2013/11/27)

>  <Rbt.Parameter_File>
/home/j5wagner/env_00/source/rDock/rDock_2013.1_src//data/scripts/dock.prm

>  <Rbt.Receptor>
/extra/banzai2/j5wagner/CELPP/2016_10_17_rdock_implementation/normal_run/tutorialVideo/tutorial_rdock_implementation/full_week_run/4-docking/1fcz/SMCSS_2lbd_tech_prep/rDockGridGenInput.prm

>  <SCORE>
-35.7024

>  <SCORE.INTER>
-25.7272

>  <SCORE.INTER.CONST>
1

>  <SCORE.INTER.POLAR>
-1.52447

>  <SCORE.INTER.REPUL>
0

>  <SCORE.INTER.ROT>
4

>  <SCORE.INTER.VDW>
-29.944

>  <SCORE.INTER.norm>
-0.952858

>  <SCORE.INTRA>
-2.7666

>  <SCORE.INTRA.DIHEDRAL>
-6.90547

>  <SCORE.INTRA.DIHEDRAL.0>
10.7811

>  <SCORE.INTRA.POLAR>
0

>  <SCORE.INTRA.POLAR.0>
0

>  <SCORE.INTRA.REPUL>
0

>  <SCORE.INTRA.REPUL.0>
0

>  <SCORE.INTRA.VDW>
0.686136

>  <SCORE.INTRA.VDW.0>
-0.812999

>  <SCORE.INTRA.norm>
-0.102467

>  <SCORE.RESTR>
0

>  <SCORE.RESTR.CAVITY>
0

>  <SCORE.RESTR.norm>
0

>  <SCORE.SYSTEM>
-7.20864

>  <SCORE.SYSTEM.CONST>
0

>  <SCORE.SYSTEM.DIHEDRAL>
1.17369

>  <SCORE.SYSTEM.POLAR>
-1.64701

>  <SCORE.SYSTEM.VDW>
-2.19565

>  <SCORE.SYSTEM.norm>
-0.266987

>  <SCORE.heavy>
27

>  <SCORE.norm>
-1.32231

$$$$

  rDOCK(R)          3D
libRbt.so/2013.1/901 2013/11/27
 28 30  0  0  0  0  0  0  0  0999 V2000
   38.9468   14.0009   85.5449 C   0  0  0  0  0  0
   39.9722   13.2474   84.7925 C   0  0  0  0  0  0
   39.8720   11.9918   84.7494 O   0  0  0  0  0  0
   41.1147   13.8988   84.1069 C   0  0  0  0  0  0
   41.5775   13.3960   82.8851 C   0  0  0  0  0  0
   42.6849   13.9691   82.2183 C   0  0  0  0  0  0
   43.2855   15.1398   82.7726 C   0  0  0  0  0  0
   42.8441   15.5897   84.0361 C   0  0  0  0  0  0
   41.7800   14.9784   84.6918 C   0  0  0  0  0  0
   44.4472   15.8746   82.0866 C   0  0  0  0  0  0
   44.1980   17.4037   82.0747 C   0  0  0  0  0  0
   45.7521   15.5920   82.8658 C   0  0  0  0  0  0
   44.6049   15.4350   80.6099 C   0  0  0  0  0  0
   44.5210   13.9224   80.4463 C   0  0  0  0  0  0
   43.1457   13.3599   80.8847 C   0  0  0  0  0  0
   43.3097   11.8244   81.0100 C   0  0  0  0  0  0
   42.0831   13.6576   79.8019 C   0  0  0  0  0  0
   38.8541   15.3385   85.5039 C   0  0  0  0  0  0
   37.8330   16.1202   86.2440 C   0  0  0  0  0  0
   36.8978   15.5223   87.1102 C   0  0  0  0  0  0
   35.9490   16.3024   87.7787 C   0  0  0  0  0  0
   35.9104   17.6953   87.5953 C   0  0  0  0  0  0
   34.9073   18.5349   88.2949 C   0  0  0  0  0  0
   33.9610   17.9871   88.9208 O   0  0  0  0  0  0
   34.9688   19.9278   88.2697 O   0  0  0  0  0  0
   36.8263   18.2867   86.7090 C   0  0  0  0  0  0
   37.7746   17.5074   86.0411 C   0  0  0  0  0  0
   34.3149   20.5119   88.7744 H   0  0  0  0  0  0
  1  2  1  0  0  0
  2  3  2  0  0  0
  2  4  1  0  0  0
  4  5  2  0  0  0
  5  6  1  0  0  0
  6  7  2  0  0  0
  7  8  1  0  0  0
  8  9  2  0  0  0
  7 10  1  0  0  0
 10 11  1  0  0  0
 10 12  1  0  0  0
 10 13  1  0  0  0
 13 14  1  0  0  0
 14 15  1  0  0  0
 15 16  1  0  0  0
 15 17  1  0  0  0
  1 18  2  0  0  0
 18 19  1  0  0  0
 19 20  2  0  0  0
 20 21  1  0  0  0
 21 22  2  0  0  0
 22 23  1  0  0  0
 23 24  2  0  0  0
 23 25  1  0  0  0
 22 26  1  0  0  0
 26 27  2  0  0  0
  9  4  1  0  0  0
 27 19  1  0  0  0
 15  6  1  0  0  0
 25 28  1  0  0  0
M  END
>  <CHROM.0>
-159.92143866,69.46371159,-176.19363115,-57.65298610,-176.05958388,-57.78196011

>  <CHROM.1>
-170.68630628,-143.54505377,2.88310960,-9.71376290,-177.33045119,40.28174711
15.45072540,84.37118489,2.68832560,0.58153314,0.21942803

>  <RI>
0

>  <Rbt.Current_Directory>
/extra/banzai2/j5wagner/CELPP/2016_10_17_rdock_implementation/normal_run/tutorialVideo/tutorial_rdock_implementation/full_week_run/4-docking/1fcz/SMCSS_2lbd_docking

>  <Rbt.Executable>
rbdock ($Id: //depot/dev/client3/rdock/2013.1/src/exe/rbdock.cxx#4 $)

>  <Rbt.Library>
libRbt.so (2013.1, Build901 2013/11/27)

>  <Rbt.Parameter_File>
/home/j5wagner/env_00/source/rDock/rDock_2013.1_src//data/scripts/dock.prm

>  <Rbt.Receptor>
/extra/banzai2/j5wagner/CELPP/2016_10_17_rdock_implementation/normal_run/tutorialVideo/tutorial_rdock_implementation/full_week_run/4-docking/1fcz/SMCSS_2lbd_tech_prep/rDockGridGenInput.prm

>  <SCORE>
-35.5734

>  <SCORE.INTER>
-26.909

>  <SCORE.INTER.CONST>
1

>  <SCORE.INTER.POLAR>
-1.03926

>  <SCORE.INTER.REPUL>
0

>  <SCORE.INTER.ROT>
4

>  <SCORE.INTER.VDW>
-32.7755

>  <SCORE.INTER.norm>
-0.996629

>  <SCORE.INTRA>
-2.09647

>  <SCORE.INTRA.DIHEDRAL>
-5.02025

>  <SCORE.INTRA.DIHEDRAL.0>
10.7811

>  <SCORE.INTRA.POLAR>
0

>  <SCORE.INTRA.POLAR.0>
0

>  <SCORE.INTRA.REPUL>
0

>  <SCORE.INTRA.REPUL.0>
0

>  <SCORE.INTRA.VDW>
0.413657

>  <SCORE.INTRA.VDW.0>
-0.812999

>  <SCORE.INTRA.norm>
-0.077647

>  <SCORE.RESTR>
0

>  <SCORE.RESTR.CAVITY>
0

>  <SCORE.RESTR.norm>
0

>  <SCORE.SYSTEM>
-6.56794

>  <SCORE.SYSTEM.CONST>
0

>  <SCORE.SYSTEM.DIHEDRAL>
1.01076

>  <SCORE.SYSTEM.POLAR>
-1.65872

>  <SCORE.SYSTEM.REPUL>
0.16275

>  <SCORE.SYSTEM.VDW>
-2.24743

>  <SCORE.SYSTEM.norm>
-0.243257

>  <SCORE.heavy>
27

>  <SCORE.norm>
-1.31753

$$$$

  rDOCK(R)          3D
libRbt.so/2013.1/901 2013/11/27
 28 30  0  0  0  0  0  0  0  0999 V2000
   39.1762   13.9815   86.0931 C   0  0  0  0  0  0
   40.2892   13.2607   85.4397 C   0  0  0  0  0  0
   40.3697   12.0146   85.6110 O   0  0  0  0  0  0
   41.3174   13.9380   84.6127 C   0  0  0  0  0  0
   41.6695   13.4125   83.3639 C   0  0  0  0  0  0
   42.6687   14.0108   82.5619 C   0  0  0  0  0  0
   43.2674   15.2270   83.0100 C   0  0  0  0  0  0
   42.9437   15.7021   84.2996 C   0  0  0  0  0  0
   41.9882   15.0674   85.0870 C   0  0  0  0  0  0
   44.3105   15.9885   82.1779 C   0  0  0  0  0  0
   43.9865   17.5031   82.1457 C   0  0  0  0  0  0
   45.7043   15.7940   82.8176 C   0  0  0  0  0  0
   44.3289   15.5029   80.7073 C   0  0  0  0  0  0
   44.3024   13.9831   80.6014 C   0  0  0  0  0  0
   43.0119   13.3750   81.2055 C   0  0  0  0  0  0
   43.2639   11.8540   81.3600 C   0  0  0  0  0  0
   41.8251   13.5843   80.2371 C   0  0  0  0  0  0
   38.9929   15.3039   85.9627 C   0  0  0  0  0  0
   37.8828   16.0524   86.6022 C   0  0  0  0  0  0
   36.9359   15.4373   87.4434 C   0  0  0  0  0  0
   35.9023   16.1853   88.0157 C   0  0  0  0  0  0
   35.7888   17.5625   87.7591 C   0  0  0  0  0  0
   34.6956   18.3679   88.3562 C   0  0  0  0  0  0
   33.7568   17.7914   88.9676 O   0  0  0  0  0  0
   34.6637   19.7579   88.2489 O   0  0  0  0  0  0
   36.7181   18.1689   86.8971 C   0  0  0  0  0  0
   37.7511   17.4217   86.3253 C   0  0  0  0  0  0
   35.3843   20.2849   87.7729 H   0  0  0  0  0  0
  1  2  1  0  0  0
  2  3  2  0  0  0
  2  4  1  0  0  0
  4  5  2  0  0  0
  5  6  1  0  0  0
  6  7  2  0  0  0
  7  8  1  0  0  0
  8  9  2  0  0  0
  7 10  1  0  0  0
 10 11  1  0  0  0
 10 12  1  0  0  0
 10 13  1  0  0  0
 13 14  1  0  0  0
 14 15  1  0  0  0
 15 16  1  0  0  0
 15 17  1  0  0  0
  1 18  2  0  0  0
 18 19  1  0  0  0
 19 20  2  0  0  0
 20 21  1  0  0  0
 21 22  2  0  0  0
 22 23  1  0  0  0
 23 24  2  0  0  0
 23 25  1  0  0  0
 22 26  1  0  0  0
 26 27  2  0  0  0
  9  4  1  0  0  0
 27 19  1  0  0  0
 15  6  1  0  0  0
 25 28  1  0  0  0
M  END
>  <CHROM.0>
-9.61850572,60.00937803,62.53921761,178.76050533,-175.32138242,-59.07371677

>  <CHROM.1>
-179.27533202,-132.87533778,1.90070290,-8.91487551,-0.80104716,40.26199148
15.44005495,84.65576548,2.81611449,0.63515676,0.03311320

>  <RI>
0

>  <Rbt.Current_Directory>
/extra/banzai2/j5wagner/CELPP/2016_10_17_rdock_implementation/normal_run/tutorialVideo/tutorial_rdock_implementation/full_week_run/4-docking/1fcz/SMCSS_2lbd_docking

>  <Rbt.Executable>
rbdock ($Id: //depot/dev/client3/rdock/2013.1/src/exe/rbdock.cxx#4 $)

>  <Rbt.Library>
libRbt.so (2013.1, Build901 2013/11/27)

>  <Rbt.Parameter_File>
/home/j5wagner/env_00/source/rDock/rDock_2013.1_src//data/scripts/dock.prm

>  <Rbt.Receptor>
/extra/banzai2/j5wagner/CELPP/2016_10_17_rdock_implementation/normal_run/tutorialVideo/tutorial_rdock_implementation/full_week_run/4-docking/1fcz/SMCSS_2lbd_tech_prep/rDockGridGenInput.prm

>  <SCORE>
-35.4971

>  <SCORE.INTER>
-30.7114

>  <SCORE.INTER.CONST>
1

>  <SCORE.INTER.POLAR>
-1.95577

>  <SCORE.INTER.REPUL>
0

>  <SCORE.INTER.ROT>
4

>  <SCORE.INTER.VDW>
-33.4618

>  <SCORE.INTER.norm>
-1.13746

>  <SCORE.INTRA>
-1.40144

>  <SCORE.INTRA.DIHEDRAL>
-3.12571

>  <SCORE.INTRA.DIHEDRAL.0>
10.7811

>  <SCORE.INTRA.POLAR>
0

>  <SCORE.INTRA.POLAR.0>
0

>  <SCORE.INTRA.REPUL>
0

>  <SCORE.INTRA.REPUL.0>
0

>  <SCORE.INTRA.VDW>
0.161409

>  <SCORE.INTRA.VDW.0>
-0.812999

>  <SCORE.INTRA.norm>
-0.0519053

>  <SCORE.RESTR>
0

>  <SCORE.RESTR.CAVITY>
0

>  <SCORE.RESTR.norm>
0

>  <SCORE.SYSTEM>
-3.38423

>  <SCORE.SYSTEM.CONST>
0

>  <SCORE.SYSTEM.DIHEDRAL>
0.320288

>  <SCORE.SYSTEM.POLAR>
-0.990203

>  <SCORE.SYSTEM.REPUL>
0.311533

>  <SCORE.SYSTEM.VDW>
-1.73535

>  <SCORE.SYSTEM.norm>
-0.125342

>  <SCORE.heavy>
27

>  <SCORE.norm>
-1.31471

$$$$

  rDOCK(R)          3D
libRbt.so/2013.1/901 2013/11/27
 28 30  0  0  0  0  0  0  0  0999 V2000
   39.3785   14.6082   84.7421 C   0  0  0  0  0  0
   40.2736   13.5943   84.1452 C   0  0  0  0  0  0
   39.9358   12.3829   84.2291 O   0  0  0  0  0  0
   41.5506   13.9370   83.4733 C   0  0  0  0  0  0
   41.9311   13.2631   82.3067 C   0  0  0  0  0  0
   43.1564   13.5385   81.6567 C   0  0  0  0  0  0
   43.9786   14.5892   82.1648 C   0  0  0  0  0  0
   43.6062   15.2099   83.3771 C   0  0  0  0  0  0
   42.4154   14.8874   84.0204 C   0  0  0  0  0  0
   45.2924   15.0091   81.4882 C   0  0  0  0  0  0
   45.3804   16.5515   81.3715 C   0  0  0  0  0  0
   46.4805   14.5088   82.3414 C   0  0  0  0  0  0
   45.3968   14.4444   80.0498 C   0  0  0  0  0  0
   44.9927   12.9771   79.9756 C   0  0  0  0  0  0
   43.5154   12.7536   80.3851 C   0  0  0  0  0  0
   43.3394   11.2310   80.6115 C   0  0  0  0  0  0
   42.5764   13.1956   79.2392 C   0  0  0  0  0  0
   38.5803   14.3453   85.7876 C   0  0  0  0  0  0
   37.6762   15.3437   86.4099 C   0  0  0  0  0  0
   37.5626   16.6655   85.9381 C   0  0  0  0  0  0
   36.7020   17.5719   86.5650 C   0  0  0  0  0  0
   35.9383   17.1807   87.6781 C   0  0  0  0  0  0
   35.0240   18.1324   88.3555 C   0  0  0  0  0  0
   35.0713   19.3578   88.0665 O   0  0  0  0  0  0
   34.1132   17.7131   89.3248 O   0  0  0  0  0  0
   36.0739   15.8696   88.1648 C   0  0  0  0  0  0
   36.9338   14.9636   87.5383 C   0  0  0  0  0  0
   34.0335   16.7479   89.6172 H   0  0  0  0  0  0
  1  2  1  0  0  0
  2  3  2  0  0  0
  2  4  1  0  0  0
  4  5  2  0  0  0
  5  6  1  0  0  0
  6  7  2  0  0  0
  7  8  1  0  0  0
  8  9  2  0  0  0
  7 10  1  0  0  0
 10 11  1  0  0  0
 10 12  1  0  0  0
 10 13  1  0  0  0
 13 14  1  0  0  0
 14 15  1  0  0  0
 15 16  1  0  0  0
 15 17  1  0  0  0
  1 18  2  0  0  0
 18 19  1  0  0  0
 19 20  2  0  0  0
 20 21  1  0  0  0
 21 22  2  0  0  0
 22 23  1  0  0  0
 23 24  2  0  0  0
 23 25  1  0  0  0
 22 26  1  0  0  0
 26 27  2  0  0  0
  9  4  1  0  0  0
 27 19  1  0  0  0
 15  6  1  0  0  0
 25 28  1  0  0  0
M  END
>  <CHROM.0>
-161.74088461,-57.76832987,60.65558719,-63.49874846,67.38706267,170.58413291

>  <CHROM.1>
28.29690942,-140.29223925,0.95523530,-10.70138416,0.36559428,40.61000431
14.96958590,84.05458621,2.61780771,0.52256718,0.40071751

>  <RI>
0

>  <Rbt.Current_Directory>
/extra/banzai2/j5wagner/CELPP/2016_10_17_rdock_implementation/normal_run/tutorialVideo/tutorial_rdock_implementation/full_week_run/4-docking/1fcz/SMCSS_2lbd_docking

>  <Rbt.Executable>
rbdock ($Id: //depot/dev/client3/rdock/2013.1/src/exe/rbdock.cxx#4 $)

>  <Rbt.Library>
libRbt.so (2013.1, Build901 2013/11/27)

>  <Rbt.Parameter_File>
/home/j5wagner/env_00/source/rDock/rDock_2013.1_src//data/scripts/dock.prm

>  <Rbt.Receptor>
/extra/banzai2/j5wagner/CELPP/2016_10_17_rdock_implementation/normal_run/tutorialVideo/tutorial_rdock_implementation/full_week_run/4-docking/1fcz/SMCSS_2lbd_tech_prep/rDockGridGenInput.prm

>  <SCORE>
-34.7795

>  <SCORE.INTER>
-27.3742

>  <SCORE.INTER.CONST>
1

>  <SCORE.INTER.POLAR>
-1.83443

>  <SCORE.INTER.REPUL>
0

>  <SCORE.INTER.ROT>
4

>  <SCORE.INTER.VDW>
-30.5372

>  <SCORE.INTER.norm>
-1.01386

>  <SCORE.INTRA>
-0.68895

>  <SCORE.INTRA.DIHEDRAL>
-2.02742

>  <SCORE.INTRA.DIHEDRAL.0>
10.7811

>  <SCORE.INTRA.POLAR>
0

>  <SCORE.INTRA.POLAR.0>
0

>  <SCORE.INTRA.REPUL>
0

>  <SCORE.INTRA.REPUL.0>
0

>  <SCORE.INTRA.VDW>
0.324762

>  <SCORE.INTRA.VDW.0>
-0.812999

>  <SCORE.INTRA.norm>
-0.0255167

>  <SCORE.RESTR>
0

>  <SCORE.RESTR.CAVITY>
0

>  <SCORE.RESTR.norm>
0

>  <SCORE.SYSTEM>
-6.7163

>  <SCORE.SYSTEM.CONST>
0

>  <SCORE.SYSTEM.DIHEDRAL>
1.27052

>  <SCORE.SYSTEM.POLAR>
-1.64793

>  <SCORE.SYSTEM.VDW>
-1.74858

>  <SCORE.SYSTEM.norm>
-0.248752

>  <SCORE.heavy>
27

>  <SCORE.norm>
-1.28813

$$$$

  rDOCK(R)          3D
libRbt.so/2013.1/901 2013/11/27
 28 30  0  0  0  0  0  0  0  0999 V2000
   39.3086   14.4300   84.7623 C   0  0  0  0  0  0
   40.2921   13.4832   84.1953 C   0  0  0  0  0  0
   40.0582   12.2495   84.3048 O   0  0  0  0  0  0
   41.5412   13.9187   83.5244 C   0  0  0  0  0  0
   41.9547   13.2952   82.3412 C   0  0  0  0  0  0
   43.1564   13.6597   81.6911 C   0  0  0  0  0  0
   43.9157   14.7479   82.2181 C   0  0  0  0  0  0
   43.5138   15.3177   83.4458 C   0  0  0  0  0  0
   42.3493   14.9084   84.0880 C   0  0  0  0  0  0
   45.1967   15.2628   81.5441 C   0  0  0  0  0  0
   45.1887   16.8098   81.4612 C   0  0  0  0  0  0
   46.4189   14.8183   82.3798 C   0  0  0  0  0  0
   45.3261   14.7371   80.0930 C   0  0  0  0  0  0
   45.0127   13.2496   79.9884 C   0  0  0  0  0  0
   43.5547   12.9265   80.4005 C   0  0  0  0  0  0
   43.4743   11.3913   80.5939 C   0  0  0  0  0  0
   42.5827   13.3346   79.2697 C   0  0  0  0  0  0
   38.6532   14.1947   85.9088 C   0  0  0  0  0  0
   37.6653   15.1283   86.5037 C   0  0  0  0  0  0
   37.3628   16.3801   85.9343 C   0  0  0  0  0  0
   36.4297   17.2284   86.5385 C   0  0  0  0  0  0
   35.7802   16.8480   87.7255 C   0  0  0  0  0  0
   34.7909   17.7390   88.3796 C   0  0  0  0  0  0
   34.5005   18.8452   87.8509 O   0  0  0  0  0  0
   34.1755   17.3959   89.5829 O   0  0  0  0  0  0
   36.1040   15.6107   88.3073 C   0  0  0  0  0  0
   37.0363   14.7628   87.7036 C   0  0  0  0  0  0
   33.6275   18.0533   90.1223 H   0  0  0  0  0  0
  1  2  1  0  0  0
  2  3  2  0  0  0
  2  4  1  0  0  0
  4  5  2  0  0  0
  5  6  1  0  0  0
  6  7  2  0  0  0
  7  8  1  0  0  0
  8  9  2  0  0  0
  7 10  1  0  0  0
 10 11  1  0  0  0
 10 12  1  0  0  0
 10 13  1  0  0  0
 13 14  1  0  0  0
 14 15  1  0  0  0
 15 16  1  0  0  0
 15 17  1  0  0  0
  1 18  2  0  0  0
 18 19  1  0  0  0
 19 20  2  0  0  0
 20 21  1  0  0  0
 21 22  2  0  0  0
 22 23  1  0  0  0
 23 24  2  0  0  0
 23 25  1  0  0  0
 22 26  1  0  0  0
 26 27  2  0  0  0
  9  4  1  0  0  0
 27 19  1  0  0  0
 15  6  1  0  0  0
 25 28  1  0  0  0
M  END
>  <CHROM.0>
-161.33959412,61.67192810,-59.42533933,-178.25445154,-172.92390682,176.91148285

>  <CHROM.1>
37.29244436,-137.27476190,-2.42972443,1.62475043,168.97946923,40.55133044
14.93132914,84.10450150,2.68364302,0.55324762,0.35977271

>  <RI>
0

>  <Rbt.Current_Directory>
/extra/banzai2/j5wagner/CELPP/2016_10_17_rdock_implementation/normal_run/tutorialVideo/tutorial_rdock_implementation/full_week_run/4-docking/1fcz/SMCSS_2lbd_docking

>  <Rbt.Executable>
rbdock ($Id: //depot/dev/client3/rdock/2013.1/src/exe/rbdock.cxx#4 $)

>  <Rbt.Library>
libRbt.so (2013.1, Build901 2013/11/27)

>  <Rbt.Parameter_File>
/home/j5wagner/env_00/source/rDock/rDock_2013.1_src//data/scripts/dock.prm

>  <Rbt.Receptor>
/extra/banzai2/j5wagner/CELPP/2016_10_17_rdock_implementation/normal_run/tutorialVideo/tutorial_rdock_implementation/full_week_run/4-docking/1fcz/SMCSS_2lbd_tech_prep/rDockGridGenInput.prm

>  <SCORE>
-34.7092

>  <SCORE.INTER>
-28.0259

>  <SCORE.INTER.CONST>
1

>  <SCORE.INTER.POLAR>
-1.97807

>  <SCORE.INTER.REPUL>
0.0282921

>  <SCORE.INTER.ROT>
4

>  <SCORE.INTER.VDW>
-30.8419

>  <SCORE.INTER.norm>
-1.038

>  <SCORE.INTRA>
0.565299

>  <SCORE.INTRA.DIHEDRAL>
0.599811

>  <SCORE.INTRA.DIHEDRAL.0>
10.7811

>  <SCORE.INTRA.POLAR>
0

>  <SCORE.INTRA.POLAR.0>
0

>  <SCORE.INTRA.REPUL>
0

>  <SCORE.INTRA.REPUL.0>
0

>  <SCORE.INTRA.VDW>
0.265393

>  <SCORE.INTRA.VDW.0>
-0.812999

>  <SCORE.INTRA.norm>
0.020937

>  <SCORE.RESTR>
0

>  <SCORE.RESTR.CAVITY>
0

>  <SCORE.RESTR.norm>
0

>  <SCORE.SYSTEM>
-7.24859

>  <SCORE.SYSTEM.CONST>
0

>  <SCORE.SYSTEM.DIHEDRAL>
0.854487

>  <SCORE.SYSTEM.POLAR>
-1.65029

>  <SCORE.SYSTEM.VDW>
-2.06483

>  <SCORE.SYSTEM.norm>
-0.268466

>  <SCORE.heavy>
27

>  <SCORE.norm>
-1.28553

$$$$

  rDOCK(R)          3D
libRbt.so/2013.1/901 2013/11/27
 28 30  0  0  0  0  0  0  0  0999 V2000
   39.3263   14.4137   84.7428 C   0  0  0  0  0  0
   40.2487   13.4485   84.1080 C   0  0  0  0  0  0
   39.9477   12.2253   84.1507 O   0  0  0  0  0  0
   41.5120   13.8526   83.4442 C   0  0  0  0  0  0
   41.9256   13.2068   82.2731 C   0  0  0  0  0  0
   43.1400   13.5411   81.6305 C   0  0  0  0  0  0
   43.9140   14.6218   82.1514 C   0  0  0  0  0  0
   43.5107   15.2144   83.3679 C   0  0  0  0  0  0
   42.3327   14.8345   84.0035 C   0  0  0  0  0  0
   45.2108   15.1047   81.4839 C   0  0  0  0  0  0
   45.2320   16.6504   81.3816 C   0  0  0  0  0  0
   46.4164   14.6485   82.3371 C   0  0  0  0  0  0
   45.3446   14.5584   80.0408 C   0  0  0  0  0  0
   45.0050   13.0757   79.9516 C   0  0  0  0  0  0
   43.5374   12.7844   80.3531 C   0  0  0  0  0  0
   43.4269   11.2536   80.5649 C   0  0  0  0  0  0
   42.5841   13.1958   79.2077 C   0  0  0  0  0  0
   38.6725   14.1491   85.8838 C   0  0  0  0  0  0
   37.7454   15.0997   86.5457 C   0  0  0  0  0  0
   37.0045   14.7641   87.6951 C   0  0  0  0  0  0
   36.1366   15.6934   88.2771 C   0  0  0  0  0  0
   35.9865   16.9765   87.7236 C   0  0  0  0  0  0
   35.0669   17.9712   88.3280 C   0  0  0  0  0  0
   35.1260   19.1770   87.9673 O   0  0  0  0  0  0
   34.1381   17.6148   89.3052 O   0  0  0  0  0  0
   36.7053   17.3000   86.5605 C   0  0  0  0  0  0
   37.5728   16.3716   85.9789 C   0  0  0  0  0  0
   33.5332   18.2897   89.7549 H   0  0  0  0  0  0
  1  2  1  0  0  0
  2  3  2  0  0  0
  2  4  1  0  0  0
  4  5  2  0  0  0
  5  6  1  0  0  0
  6  7  2  0  0  0
  7  8  1  0  0  0
  8  9  2  0  0  0
  7 10  1  0  0  0
 10 11  1  0  0  0
 10 12  1  0  0  0
 10 13  1  0  0  0
 13 14  1  0  0  0
 14 15  1  0  0  0
 15 16  1  0  0  0
 15 17  1  0  0  0
  1 18  2  0  0  0
 18 19  1  0  0  0
 19 20  2  0  0  0
 20 21  1  0  0  0
 21 22  2  0  0  0
 22 23  1  0  0  0
 23 24  2  0  0  0
 23 25  1  0  0  0
 22 26  1  0  0  0
 26 27  2  0  0  0
  9  4  1  0  0  0
 27 19  1  0  0  0
 15  6  1  0  0  0
 25 28  1  0  0  0
M  END
>  <CHROM.0>
-161.12934913,-58.29278342,63.69698775,-58.59775652,-174.45687871,170.83385701

>  <CHROM.1>
37.28983791,-142.00351925,175.69824857,167.27059247,177.23560573,40.60491404
14.89958744,84.05466429,2.64539570,0.55063869,0.37439742

>  <RI>
0

>  <Rbt.Current_Directory>
/extra/banzai2/j5wagner/CELPP/2016_10_17_rdock_implementation/normal_run/tutorialVideo/tutorial_rdock_implementation/full_week_run/4-docking/1fcz/SMCSS_2lbd_docking

>  <Rbt.Executable>
rbdock ($Id: //depot/dev/client3/rdock/2013.1/src/exe/rbdock.cxx#4 $)

>  <Rbt.Library>
libRbt.so (2013.1, Build901 2013/11/27)

>  <Rbt.Parameter_File>
/home/j5wagner/env_00/source/rDock/rDock_2013.1_src//data/scripts/dock.prm

>  <Rbt.Receptor>
/extra/banzai2/j5wagner/CELPP/2016_10_17_rdock_implementation/normal_run/tutorialVideo/tutorial_rdock_implementation/full_week_run/4-docking/1fcz/SMCSS_2lbd_tech_prep/rDockGridGenInput.prm

>  <SCORE>
-34.6637

>  <SCORE.INTER>
-27.8372

>  <SCORE.INTER.CONST>
1

>  <SCORE.INTER.POLAR>
-1.79955

>  <SCORE.INTER.REPUL>
0

>  <SCORE.INTER.ROT>
4

>  <SCORE.INTER.VDW>
-31.1188

>  <SCORE.INTER.norm>
-1.03101

>  <SCORE.INTRA>
0.326035

>  <SCORE.INTRA.DIHEDRAL>
-0.521992

>  <SCORE.INTRA.DIHEDRAL.0>
10.7811

>  <SCORE.INTRA.POLAR>
0

>  <SCORE.INTRA.POLAR.0>
0

>  <SCORE.INTRA.REPUL>
0

>  <SCORE.INTRA.REPUL.0>
0

>  <SCORE.INTRA.VDW>
0.587031

>  <SCORE.INTRA.VDW.0>
-0.812999

>  <SCORE.INTRA.norm>
0.0120754

>  <SCORE.RESTR>
0

>  <SCORE.RESTR.CAVITY>
0

>  <SCORE.RESTR.norm>
0

>  <SCORE.SYSTEM>
-7.15249

>  <SCORE.SYSTEM.CONST>
0

>  <SCORE.SYSTEM.DIHEDRAL>
1.18707

>  <SCORE.SYSTEM.POLAR>
-1.65153

>  <SCORE.SYSTEM.VDW>
-2.13081

>  <SCORE.SYSTEM.norm>
-0.264907

>  <SCORE.heavy>
27

>  <SCORE.norm>
-1.28384

$$$$

  rDOCK(R)          3D
libRbt.so/2013.1/901 2013/11/27
 28 30  0  0  0  0  0  0  0  0999 V2000
   38.7560   14.0229   85.3396 C   0  0  0  0  0  0
   39.7293   13.2681   84.5222 C   0  0  0  0  0  0
   39.5428   12.0307   84.3713 O   0  0  0  0  0  0
   40.9164   13.8957   83.8924 C   0  0  0  0  0  0
   41.3771   13.4357   82.6531 C   0  0  0  0  0  0
   42.5248   13.9862   82.0371 C   0  0  0  0  0  0
   43.1726   15.0932   82.6642 C   0  0  0  0  0  0
   42.7297   15.4970   83.9427 C   0  0  0  0  0  0
   41.6237   14.9069   84.5463 C   0  0  0  0  0  0
   44.3830   15.8031   82.0388 C   0  0  0  0  0  0
   44.2113   17.3413   82.1059 C   0  0  0  0  0  0
   45.6565   15.4126   82.8234 C   0  0  0  0  0  0
   44.5472   15.4355   80.5432 C   0  0  0  0  0  0
   44.3905   13.9401   80.2964 C   0  0  0  0  0  0
   42.9804   13.4262   80.6803 C   0  0  0  0  0  0
   43.0645   11.8798   80.7247 C   0  0  0  0  0  0
   41.9555   13.8354   79.5975 C   0  0  0  0  0  0
   38.7189   15.3634   85.3691 C   0  0  0  0  0  0
   37.7507   16.1469   86.1754 C   0  0  0  0  0  0
   36.7680   15.5423   86.9826 C   0  0  0  0  0  0
   35.8723   16.3253   87.7176 C   0  0  0  0  0  0
   35.9353   17.7282   87.6611 C   0  0  0  0  0  0
   34.9895   18.5715   88.4324 C   0  0  0  0  0  0
   33.9025   18.0806   88.8382 O   0  0  0  0  0  0
   35.2599   19.9103   88.7136 O   0  0  0  0  0  0
   36.8984   18.3295   86.8334 C   0  0  0  0  0  0
   37.7936   17.5473   86.0990 C   0  0  0  0  0  0
   36.1188   20.3644   88.4314 H   0  0  0  0  0  0
  1  2  1  0  0  0
  2  3  2  0  0  0
  2  4  1  0  0  0
  4  5  2  0  0  0
  5  6  1  0  0  0
  6  7  2  0  0  0
  7  8  1  0  0  0
  8  9  2  0  0  0
  7 10  1  0  0  0
 10 11  1  0  0  0
 10 12  1  0  0  0
 10 13  1  0  0  0
 13 14  1  0  0  0
 14 15  1  0  0  0
 15 16  1  0  0  0
 15 17  1  0  0  0
  1 18  2  0  0  0
 18 19  1  0  0  0
 19 20  2  0  0  0
 20 21  1  0  0  0
 21 22  2  0  0  0
 22 23  1  0  0  0
 23 24  2  0  0  0
 23 25  1  0  0  0
 22 26  1  0  0  0
 26 27  2  0  0  0
  9  4  1  0  0  0
 27 19  1  0  0  0
 15  6  1  0  0  0
 25 28  1  0  0  0
M  END
>  <CHROM.0>
-20.42940219,-179.20809602,-59.16081960,60.22308785,-176.50235650,-60.72983931

>  <CHROM.1>
-167.70945136,-145.91789887,-0.47691241,-20.09581603,-1.77378947,40.19312190
15.46007546,84.28140837,2.61000397,0.55210809,0.34696784

>  <RI>
0

>  <Rbt.Current_Directory>
/extra/banzai2/j5wagner/CELPP/2016_10_17_rdock_implementation/normal_run/tutorialVideo/tutorial_rdock_implementation/full_week_run/4-docking/1fcz/SMCSS_2lbd_docking

>  <Rbt.Executable>
rbdock ($Id: //depot/dev/client3/rdock/2013.1/src/exe/rbdock.cxx#4 $)

>  <Rbt.Library>
libRbt.so (2013.1, Build901 2013/11/27)

>  <Rbt.Parameter_File>
/home/j5wagner/env_00/source/rDock/rDock_2013.1_src//data/scripts/dock.prm

>  <Rbt.Receptor>
/extra/banzai2/j5wagner/CELPP/2016_10_17_rdock_implementation/normal_run/tutorialVideo/tutorial_rdock_implementation/full_week_run/4-docking/1fcz/SMCSS_2lbd_tech_prep/rDockGridGenInput.prm

>  <SCORE>
-34.5574

>  <SCORE.INTER>
-29.1958

>  <SCORE.INTER.CONST>
1

>  <SCORE.INTER.POLAR>
-1.51985

>  <SCORE.INTER.REPUL>
0

>  <SCORE.INTER.ROT>
4

>  <SCORE.INTER.VDW>
-33.4283

>  <SCORE.INTER.norm>
-1.08133

>  <SCORE.INTRA>
-1.78536

>  <SCORE.INTRA.DIHEDRAL>
-4.2443

>  <SCORE.INTRA.DIHEDRAL.0>
10.7811

>  <SCORE.INTRA.POLAR>
0

>  <SCORE.INTRA.POLAR.0>
0

>  <SCORE.INTRA.REPUL>
0

>  <SCORE.INTRA.REPUL.0>
0

>  <SCORE.INTRA.VDW>
0.336788

>  <SCORE.INTRA.VDW.0>
-0.812999

>  <SCORE.INTRA.norm>
-0.0661245

>  <SCORE.RESTR>
0

>  <SCORE.RESTR.CAVITY>
0

>  <SCORE.RESTR.norm>
0

>  <SCORE.SYSTEM>
-3.57622

>  <SCORE.SYSTEM.CONST>
0

>  <SCORE.SYSTEM.DIHEDRAL>
0.679434

>  <SCORE.SYSTEM.POLAR>
-0.990203

>  <SCORE.SYSTEM.REPUL>
0.304371

>  <SCORE.SYSTEM.VDW>
-2.07111

>  <SCORE.SYSTEM.norm>
-0.132453

>  <SCORE.heavy>
27

>  <SCORE.norm>
-1.2799

$$$$

  rDOCK(R)          3D
libRbt.so/2013.1/901 2013/11/27
 28 30  0  0  0  0  0  0  0  0999 V2000
   39.4650   14.7447   85.2257 C   0  0  0  0  0  0
   40.2784   13.6030   84.7565 C   0  0  0  0  0  0
   39.8664   12.4388   85.0086 O   0  0  0  0  0  0
   41.5574   13.7674   84.0237 C   0  0  0  0  0  0
   41.7217   13.1837   82.7619 C   0  0  0  0  0  0
   42.9374   13.2901   82.0476 C   0  0  0  0  0  0
   43.9874   14.0843   82.5999 C   0  0  0  0  0  0
   43.8227   14.6087   83.9005 C   0  0  0  0  0  0
   42.6304   14.4506   84.6000 C   0  0  0  0  0  0
   45.3181   14.3169   81.8682 C   0  0  0  0  0  0
   45.7163   15.8133   81.9172 C   0  0  0  0  0  0
   46.4245   13.4875   82.5591 C   0  0  0  0  0  0
   45.2194   13.9284   80.3721 C   0  0  0  0  0  0
   44.5168   12.5917   80.1685 C   0  0  0  0  0  0
   43.0517   12.6161   80.6712 C   0  0  0  0  0  0
   42.5778   11.1425   80.7403 C   0  0  0  0  0  0
   42.1593   13.3763   79.6633 C   0  0  0  0  0  0
   38.4723   14.6098   86.1177 C   0  0  0  0  0  0
   37.6434   15.7376   86.6101 C   0  0  0  0  0  0
   36.6779   15.5862   87.6238 C   0  0  0  0  0  0
   35.9153   16.6792   88.0473 C   0  0  0  0  0  0
   36.0970   17.9462   87.4668 C   0  0  0  0  0  0
   35.2928   19.1138   87.9033 C   0  0  0  0  0  0
   35.4243   20.2191   87.3131 O   0  0  0  0  0  0
   34.3963   19.0320   88.9683 O   0  0  0  0  0  0
   37.0411   18.0892   86.4361 C   0  0  0  0  0  0
   37.8033   16.9972   86.0129 C   0  0  0  0  0  0
   34.2766   18.1906   89.5172 H   0  0  0  0  0  0
  1  2  1  0  0  0
  2  3  2  0  0  0
  2  4  1  0  0  0
  4  5  2  0  0  0
  5  6  1  0  0  0
  6  7  2  0  0  0
  7  8  1  0  0  0
  8  9  2  0  0  0
  7 10  1  0  0  0
 10 11  1  0  0  0
 10 12  1  0  0  0
 10 13  1  0  0  0
 13 14  1  0  0  0
 14 15  1  0  0  0
 15 16  1  0  0  0
 15 17  1  0  0  0
  1 18  2  0  0  0
 18 19  1  0  0  0
 19 20  2  0  0  0
 20 21  1  0  0  0
 21 22  2  0  0  0
 22 23  1  0  0  0
 23 24  2  0  0  0
 23 25  1  0  0  0
 22 26  1  0  0  0
 26 27  2  0  0  0
  9  4  1  0  0  0
 27 19  1  0  0  0
 15  6  1  0  0  0
 25 28  1  0  0  0
M  END
>  <CHROM.0>
-159.42505517,-62.62089660,65.08431649,61.23714679,179.90175084,170.09798929

>  <CHROM.1>
13.54960301,-123.41993180,-174.87518878,-175.98700317,2.52975335,40.57826670
15.03761931,84.26893646,2.54730259,0.48230381,0.33349610

>  <RI>
0

>  <Rbt.Current_Directory>
/extra/banzai2/j5wagner/CELPP/2016_10_17_rdock_implementation/normal_run/tutorialVideo/tutorial_rdock_implementation/full_week_run/4-docking/1fcz/SMCSS_2lbd_docking

>  <Rbt.Executable>
rbdock ($Id: //depot/dev/client3/rdock/2013.1/src/exe/rbdock.cxx#4 $)

>  <Rbt.Library>
libRbt.so (2013.1, Build901 2013/11/27)

>  <Rbt.Parameter_File>
/home/j5wagner/env_00/source/rDock/rDock_2013.1_src//data/scripts/dock.prm

>  <Rbt.Receptor>
/extra/banzai2/j5wagner/CELPP/2016_10_17_rdock_implementation/normal_run/tutorialVideo/tutorial_rdock_implementation/full_week_run/4-docking/1fcz/SMCSS_2lbd_tech_prep/rDockGridGenInput.prm

>  <SCORE>
-34.3912

>  <SCORE.INTER>
-27.4814

>  <SCORE.INTER.CONST>
1

>  <SCORE.INTER.POLAR>
-0.876029

>  <SCORE.INTER.REPUL>
0

>  <SCORE.INTER.ROT>
4

>  <SCORE.INTER.VDW>
-33.9029

>  <SCORE.INTER.norm>
-1.01783

>  <SCORE.INTRA>
0.254838

>  <SCORE.INTRA.DIHEDRAL>
-0.567055

>  <SCORE.INTRA.DIHEDRAL.0>
10.7811

>  <SCORE.INTRA.POLAR>
0

>  <SCORE.INTRA.POLAR.0>
0

>  <SCORE.INTRA.REPUL>
0

>  <SCORE.INTRA.REPUL.0>
0

>  <SCORE.INTRA.VDW>
0.538366

>  <SCORE.INTRA.VDW.0>
-0.812999

>  <SCORE.INTRA.norm>
0.00943845

>  <SCORE.RESTR>
0

>  <SCORE.RESTR.CAVITY>
0

>  <SCORE.RESTR.norm>
0

>  <SCORE.SYSTEM>
-7.16464

>  <SCORE.SYSTEM.CONST>
0

>  <SCORE.SYSTEM.DIHEDRAL>
1.24872

>  <SCORE.SYSTEM.POLAR>
-1.66169

>  <SCORE.SYSTEM.VDW>
-2.13924

>  <SCORE.SYSTEM.norm>
-0.265357

>  <SCORE.heavy>
27

>  <SCORE.norm>
-1.27375

$$$$

  rDOCK(R)          3D
libRbt.so/2013.1/901 2013/11/27
 28 30  0  0  0  0  0  0  0  0999 V2000
   40.0339   14.9665   85.6680 C   0  0  0  0  0  0
   41.1208   14.0209   85.3367 C   0  0  0  0  0  0
   41.6211   13.3417   86.2731 O   0  0  0  0  0  0
   41.6558   13.8516   83.9638 C   0  0  0  0  0  0
   43.0231   14.0254   83.7186 C   0  0  0  0  0  0
   43.5650   13.9054   82.4180 C   0  0  0  0  0  0
   42.7006   13.5157   81.3507 C   0  0  0  0  0  0
   41.3166   13.4094   81.6092 C   0  0  0  0  0  0
   40.8039   13.5770   82.8918 C   0  0  0  0  0  0
   43.2080   13.2918   79.9180 C   0  0  0  0  0  0
   42.6339   11.9774   79.3322 C   0  0  0  0  0  0
   42.7484   14.4713   79.0308 C   0  0  0  0  0  0
   44.7511   13.1649   79.8749 C   0  0  0  0  0  0
   45.4410   14.2299   80.7184 C   0  0  0  0  0  0
   45.0740   14.1189   82.2194 C   0  0  0  0  0  0
   45.5354   15.4364   82.8914 C   0  0  0  0  0  0
   45.8380   12.9399   82.8648 C   0  0  0  0  0  0
   39.0489   14.6666   86.5278 C   0  0  0  0  0  0
   37.9488   15.5968   86.8828 C   0  0  0  0  0  0
   37.8641   16.9056   86.3704 C   0  0  0  0  0  0
   36.8114   17.7474   86.7427 C   0  0  0  0  0  0
   35.8219   17.3032   87.6366 C   0  0  0  0  0  0
   34.7015   18.1862   88.0433 C   0  0  0  0  0  0
   33.7855   17.7342   88.7810 O   0  0  0  0  0  0
   34.6190   19.5119   87.6186 O   0  0  0  0  0  0
   35.9234   16.0067   88.1685 C   0  0  0  0  0  0
   36.9752   15.1653   87.7965 C   0  0  0  0  0  0
   35.3263   19.9438   87.0383 H   0  0  0  0  0  0
  1  2  1  0  0  0
  2  3  2  0  0  0
  2  4  1  0  0  0
  4  5  2  0  0  0
  5  6  1  0  0  0
  6  7  2  0  0  0
  7  8  1  0  0  0
  8  9  2  0  0  0
  7 10  1  0  0  0
 10 11  1  0  0  0
 10 12  1  0  0  0
 10 13  1  0  0  0
 13 14  1  0  0  0
 14 15  1  0  0  0
 15 16  1  0  0  0
 15 17  1  0  0  0
  1 18  2  0  0  0
 18 19  1  0  0  0
 19 20  2  0  0  0
 20 21  1  0  0  0
 21 22  2  0  0  0
 22 23  1  0  0  0
 23 24  2  0  0  0
 23 25  1  0  0  0
 22 26  1  0  0  0
 26 27  2  0  0  0
  9  4  1  0  0  0
 27 19  1  0  0  0
 15  6  1  0  0  0
 25 28  1  0  0  0
M  END
>  <CHROM.0>
-161.27484292,-178.91850962,-58.53869530,-177.65442405,62.07685878,172.19320411

>  <CHROM.1>
-41.13843530,123.92589363,-1.89941458,175.66619545,-1.79547589,40.53371138
14.95764715,84.24339881,-2.51111632,0.41614001,-1.58280164

>  <RI>
0

>  <Rbt.Current_Directory>
/extra/banzai2/j5wagner/CELPP/2016_10_17_rdock_implementation/normal_run/tutorialVideo/tutorial_rdock_implementation/full_week_run/4-docking/1fcz/SMCSS_2lbd_docking

>  <Rbt.Executable>
rbdock ($Id: //depot/dev/client3/rdock/2013.1/src/exe/rbdock.cxx#4 $)

>  <Rbt.Library>
libRbt.so (2013.1, Build901 2013/11/27)

>  <Rbt.Parameter_File>
/home/j5wagner/env_00/source/rDock/rDock_2013.1_src//data/scripts/dock.prm

>  <Rbt.Receptor>
/extra/banzai2/j5wagner/CELPP/2016_10_17_rdock_implementation/normal_run/tutorialVideo/tutorial_rdock_implementation/full_week_run/4-docking/1fcz/SMCSS_2lbd_tech_prep/rDockGridGenInput.prm

>  <SCORE>
-34.3305

>  <SCORE.INTER>
-28.9568

>  <SCORE.INTER.CONST>
1

>  <SCORE.INTER.POLAR>
-2.5666

>  <SCORE.INTER.REPUL>
0.00835361

>  <SCORE.INTER.ROT>
4

>  <SCORE.INTER.VDW>
-29.6721

>  <SCORE.INTER.norm>
-1.07247

>  <SCORE.INTRA>
1.43523

>  <SCORE.INTRA.DIHEDRAL>
2.59834

>  <SCORE.INTRA.DIHEDRAL.0>
10.7811

>  <SCORE.INTRA.POLAR>
0

>  <SCORE.INTRA.POLAR.0>
0

>  <SCORE.INTRA.REPUL>
0

>  <SCORE.INTRA.REPUL.0>
0

>  <SCORE.INTRA.VDW>
0.136061

>  <SCORE.INTRA.VDW.0>
-0.812999

>  <SCORE.INTRA.norm>
0.0531568

>  <SCORE.RESTR>
0

>  <SCORE.RESTR.CAVITY>
0

>  <SCORE.RESTR.norm>
0

>  <SCORE.SYSTEM>
-6.80894

>  <SCORE.SYSTEM.CONST>
0

>  <SCORE.SYSTEM.DIHEDRAL>
0.896643

>  <SCORE.SYSTEM.POLAR>
-1.65067

>  <SCORE.SYSTEM.VDW>
-1.64497

>  <SCORE.SYSTEM.norm>
-0.252183

>  <SCORE.heavy>
27

>  <SCORE.norm>
-1.2715

$$$$

  rDOCK(R)          3D
libRbt.so/2013.1/901 2013/11/27
 28 30  0  0  0  0  0  0  0  0999 V2000
   39.4960   14.6200   85.3840 C   0  0  0  0  0  0
   40.3944   13.5401   84.9233 C   0  0  0  0  0  0
   40.1075   12.3547   85.2413 O   0  0  0  0  0  0
   41.6188   13.7913   84.1248 C   0  0  0  0  0  0
   41.7620   13.2084   82.8601 C   0  0  0  0  0  0
   42.9287   13.3972   82.0837 C   0  0  0  0  0  0
   43.9431   14.2727   82.5763 C   0  0  0  0  0  0
   43.8059   14.7970   83.8801 C   0  0  0  0  0  0
   42.6657   14.5581   84.6409 C   0  0  0  0  0  0
   45.2140   14.5958   81.7757 C   0  0  0  0  0  0
   45.5015   16.1181   81.7945 C   0  0  0  0  0  0
   46.4127   13.8579   82.4144 C   0  0  0  0  0  0
   45.0689   14.1857   80.2892 C   0  0  0  0  0  0
   44.4585   12.7986   80.1307 C   0  0  0  0  0  0
   43.0230   12.7194   80.7076 C   0  0  0  0  0  0
   42.6645   11.2156   80.8105 C   0  0  0  0  0  0
   42.0265   13.4009   79.7419 C   0  0  0  0  0  0
   38.5509   14.4286   86.3164 C   0  0  0  0  0  0
   37.6393   15.4941   86.8013 C   0  0  0  0  0  0
   37.7559   16.8376   86.3962 C   0  0  0  0  0  0
   36.8765   17.8068   86.8888 C   0  0  0  0  0  0
   35.8637   17.4578   87.7986 C   0  0  0  0  0  0
   34.9261   18.4759   88.3324 C   0  0  0  0  0  0
   33.9098   18.1104   88.9812 O   0  0  0  0  0  0
   35.1263   19.8402   88.1244 O   0  0  0  0  0  0
   35.7666   16.1220   88.2233 C   0  0  0  0  0  0
   36.6451   15.1533   87.7310 C   0  0  0  0  0  0
   34.4964   20.5451   88.4847 H   0  0  0  0  0  0
  1  2  1  0  0  0
  2  3  2  0  0  0
  2  4  1  0  0  0
  4  5  2  0  0  0
  5  6  1  0  0  0
  6  7  2  0  0  0
  7  8  1  0  0  0
  8  9  2  0  0  0
  7 10  1  0  0  0
 10 11  1  0  0  0
 10 12  1  0  0  0
 10 13  1  0  0  0
 13 14  1  0  0  0
 14 15  1  0  0  0
 15 16  1  0  0  0
 15 17  1  0  0  0
  1 18  2  0  0  0
 18 19  1  0  0  0
 19 20  2  0  0  0
 20 21  1  0  0  0
 21 22  2  0  0  0
 22 23  1  0  0  0
 23 24  2  0  0  0
 23 25  1  0  0  0
 22 26  1  0  0  0
 26 27  2  0  0  0
  9  4  1  0  0  0
 27 19  1  0  0  0
 15  6  1  0  0  0
 25 28  1  0  0  0
M  END
>  <CHROM.0>
-162.06872384,-58.52203909,-57.47605697,61.67169126,178.97703759,-57.30280094

>  <CHROM.1>
12.82201644,-121.10291499,-5.11619941,169.25649422,-179.83644033,40.50711023
14.95792555,84.39940041,2.60810160,0.52458712,0.32780719

>  <RI>
0

>  <Rbt.Current_Directory>
/extra/banzai2/j5wagner/CELPP/2016_10_17_rdock_implementation/normal_run/tutorialVideo/tutorial_rdock_implementation/full_week_run/4-docking/1fcz/SMCSS_2lbd_docking

>  <Rbt.Executable>
rbdock ($Id: //depot/dev/client3/rdock/2013.1/src/exe/rbdock.cxx#4 $)

>  <Rbt.Library>
libRbt.so (2013.1, Build901 2013/11/27)

>  <Rbt.Parameter_File>
/home/j5wagner/env_00/source/rDock/rDock_2013.1_src//data/scripts/dock.prm

>  <Rbt.Receptor>
/extra/banzai2/j5wagner/CELPP/2016_10_17_rdock_implementation/normal_run/tutorialVideo/tutorial_rdock_implementation/full_week_run/4-docking/1fcz/SMCSS_2lbd_tech_prep/rDockGridGenInput.prm

>  <SCORE>
-34.2361

>  <SCORE.INTER>
-27.7618

>  <SCORE.INTER.CONST>
1

>  <SCORE.INTER.POLAR>
-1.03827

>  <SCORE.INTER.REPUL>
0.0168113

>  <SCORE.INTER.ROT>
4

>  <SCORE.INTER.VDW>
-33.7157

>  <SCORE.INTER.norm>
-1.02822

>  <SCORE.INTRA>
0.296461

>  <SCORE.INTRA.DIHEDRAL>
0.101449

>  <SCORE.INTRA.DIHEDRAL.0>
10.7811

>  <SCORE.INTRA.POLAR>
0

>  <SCORE.INTRA.POLAR.0>
0

>  <SCORE.INTRA.REPUL>
0

>  <SCORE.INTRA.REPUL.0>
0

>  <SCORE.INTRA.VDW>
0.245736

>  <SCORE.INTRA.VDW.0>
-0.812999

>  <SCORE.INTRA.norm>
0.01098

>  <SCORE.RESTR>
0

>  <SCORE.RESTR.CAVITY>
0

>  <SCORE.RESTR.norm>
0

>  <SCORE.SYSTEM>
-6.77078

>  <SCORE.SYSTEM.CONST>
0

>  <SCORE.SYSTEM.DIHEDRAL>
0.597594

>  <SCORE.SYSTEM.POLAR>
-1.64602

>  <SCORE.SYSTEM.REPUL>
0.164738

>  <SCORE.SYSTEM.VDW>
-2.29681

>  <SCORE.SYSTEM.norm>
-0.25077

>  <SCORE.heavy>
27

>  <SCORE.norm>
-1.268

$$$$

  rDOCK(R)          3D
libRbt.so/2013.1/901 2013/11/27
 28 30  0  0  0  0  0  0  0  0999 V2000
   39.4360   14.2991   85.5120 C   0  0  0  0  0  0
   40.4303   13.2719   85.1357 C   0  0  0  0  0  0
   40.2502   12.0942   85.5471 O   0  0  0  0  0  0
   41.6307   13.5689   84.3168 C   0  0  0  0  0  0
   42.1020   14.8833   84.2159 C   0  0  0  0  0  0
   43.2228   15.2106   83.4182 C   0  0  0  0  0  0
   43.9329   14.1546   82.7710 C   0  0  0  0  0  0
   43.4020   12.8478   82.8345 C   0  0  0  0  0  0
   42.2703   12.5614   83.5915 C   0  0  0  0  0  0
   45.2017   14.4014   81.9406 C   0  0  0  0  0  0
   46.3023   13.3727   82.3023 C   0  0  0  0  0  0
   44.8588   14.2524   80.4407 C   0  0  0  0  0  0
   45.7946   15.8061   82.2127 C   0  0  0  0  0  0
   44.7253   16.8915   82.2222 C   0  0  0  0  0  0
   43.6801   16.6760   83.3452 C   0  0  0  0  0  0
   42.4845   17.6093   83.0287 C   0  0  0  0  0  0
   44.2791   17.0847   84.7106 C   0  0  0  0  0  0
   38.5482   14.1207   86.5015 C   0  0  0  0  0  0
   37.5429   15.1351   86.9040 C   0  0  0  0  0  0
   36.6140   14.9165   87.9393 C   0  0  0  0  0  0
   35.6801   15.9016   88.2754 C   0  0  0  0  0  0
   35.6504   17.1249   87.5842 C   0  0  0  0  0  0
   34.6631   18.1776   87.9272 C   0  0  0  0  0  0
   33.7369   17.9238   88.7428 O   0  0  0  0  0  0
   34.7175   19.4496   87.3584 O   0  0  0  0  0  0
   36.5597   17.3303   86.5329 C   0  0  0  0  0  0
   37.4931   16.3461   86.1970 C   0  0  0  0  0  0
   35.4212   19.7150   86.6818 H   0  0  0  0  0  0
  1  2  1  0  0  0
  2  3  2  0  0  0
  2  4  1  0  0  0
  4  5  2  0  0  0
  5  6  1  0  0  0
  6  7  2  0  0  0
  7  8  1  0  0  0
  8  9  2  0  0  0
  7 10  1  0  0  0
 10 11  1  0  0  0
 10 12  1  0  0  0
 10 13  1  0  0  0
 13 14  1  0  0  0
 14 15  1  0  0  0
 15 16  1  0  0  0
 15 17  1  0  0  0
  1 18  2  0  0  0
 18 19  1  0  0  0
 19 20  2  0  0  0
 20 21  1  0  0  0
 21 22  2  0  0  0
 22 23  1  0  0  0
 23 24  2  0  0  0
 23 25  1  0  0  0
 22 26  1  0  0  0
 26 27  2  0  0  0
  9  4  1  0  0  0
 27 19  1  0  0  0
 15  6  1  0  0  0
 25 28  1  0  0  0
M  END
>  <CHROM.0>
-9.74969570,-60.28992214,-60.07842475,-60.95283324,65.11975033,-57.01753462

>  <CHROM.1>
16.02568444,20.26648067,179.40343175,-8.21741168,0.61237705,40.55305592,15.43666095
84.87014872,2.95648288,0.53404914,-0.07981776

>  <RI>
0

>  <Rbt.Current_Directory>
/extra/banzai2/j5wagner/CELPP/2016_10_17_rdock_implementation/normal_run/tutorialVideo/tutorial_rdock_implementation/full_week_run/4-docking/1fcz/SMCSS_2lbd_docking

>  <Rbt.Executable>
rbdock ($Id: //depot/dev/client3/rdock/2013.1/src/exe/rbdock.cxx#4 $)

>  <Rbt.Library>
libRbt.so (2013.1, Build901 2013/11/27)

>  <Rbt.Parameter_File>
/home/j5wagner/env_00/source/rDock/rDock_2013.1_src//data/scripts/dock.prm

>  <Rbt.Receptor>
/extra/banzai2/j5wagner/CELPP/2016_10_17_rdock_implementation/normal_run/tutorialVideo/tutorial_rdock_implementation/full_week_run/4-docking/1fcz/SMCSS_2lbd_tech_prep/rDockGridGenInput.prm

>  <SCORE>
-32.9654

>  <SCORE.INTER>
-26.9626

>  <SCORE.INTER.CONST>
1

>  <SCORE.INTER.POLAR>
-2.07159

>  <SCORE.INTER.REPUL>
0

>  <SCORE.INTER.ROT>
4

>  <SCORE.INTER.VDW>
-29.3192

>  <SCORE.INTER.norm>
-0.998615

>  <SCORE.INTRA>
-2.9359

>  <SCORE.INTRA.DIHEDRAL>
-7.75301

>  <SCORE.INTRA.DIHEDRAL.0>
10.7811

>  <SCORE.INTRA.POLAR>
0

>  <SCORE.INTRA.POLAR.0>
0

>  <SCORE.INTRA.REPUL>
0

>  <SCORE.INTRA.REPUL.0>
0

>  <SCORE.INTRA.VDW>
0.940604

>  <SCORE.INTRA.VDW.0>
-0.812999

>  <SCORE.INTRA.norm>
-0.108737

>  <SCORE.RESTR>
0

>  <SCORE.RESTR.CAVITY>
0

>  <SCORE.RESTR.norm>
0

>  <SCORE.SYSTEM>
-3.06688

>  <SCORE.SYSTEM.CONST>
0

>  <SCORE.SYSTEM.DIHEDRAL>
0.343702

>  <SCORE.SYSTEM.POLAR>
-0.990203

>  <SCORE.SYSTEM.REPUL>
0.320141

>  <SCORE.SYSTEM.VDW>
-1.47274

>  <SCORE.SYSTEM.norm>
-0.113588

>  <SCORE.heavy>
27

>  <SCORE.norm>
-1.22094

$$$$

  rDOCK(R)          3D
libRbt.so/2013.1/901 2013/11/27
 28 30  0  0  0  0  0  0  0  0999 V2000
   39.1786   14.9294   84.8841 C   0  0  0  0  0  0
   39.9791   13.9186   84.1610 C   0  0  0  0  0  0
   39.5507   12.7336   84.1320 O   0  0  0  0  0  0
   41.2635   14.2327   83.4890 C   0  0  0  0  0  0
   41.6849   13.4710   82.3926 C   0  0  0  0  0  0
   42.9185   13.7186   81.7472 C   0  0  0  0  0  0
   43.7061   14.8277   82.1806 C   0  0  0  0  0  0
   43.2930   15.5403   83.3273 C   0  0  0  0  0  0
   42.0950   15.2460   83.9708 C   0  0  0  0  0  0
   45.0258   15.2191   81.4982 C   0  0  0  0  0  0
   45.0832   16.7475   81.2518 C   0  0  0  0  0  0
   46.2045   14.8210   82.4157 C   0  0  0  0  0  0
   45.1750   14.5366   80.1159 C   0  0  0  0  0  0
   44.8043   13.0593   80.1590 C   0  0  0  0  0  0
   43.3232   12.8370   80.5552 C   0  0  0  0  0  0
   43.1748   11.3355   80.9073 C   0  0  0  0  0  0
   42.4013   13.1578   79.3563 C   0  0  0  0  0  0
   38.2757   14.6044   85.8213 C   0  0  0  0  0  0
   37.4624   15.5970   86.5661 C   0  0  0  0  0  0
   37.4096   16.9582   86.2099 C   0  0  0  0  0  0
   36.6341   17.8564   86.9497 C   0  0  0  0  0  0
   35.8969   17.4172   88.0626 C   0  0  0  0  0  0
   35.0728   18.3592   88.8589 C   0  0  0  0  0  0
   34.7091   18.0416   90.0226 O   0  0  0  0  0  0
   34.6694   19.5934   88.3504 O   0  0  0  0  0  0
   35.9729   16.0640   88.4334 C   0  0  0  0  0  0
   36.7476   15.1663   87.6942 C   0  0  0  0  0  0
   34.9668   19.9341   87.4454 H   0  0  0  0  0  0
  1  2  1  0  0  0
  2  3  2  0  0  0
  2  4  1  0  0  0
  4  5  2  0  0  0
  5  6  1  0  0  0
  6  7  2  0  0  0
  7  8  1  0  0  0
  8  9  2  0  0  0
  7 10  1  0  0  0
 10 11  1  0  0  0
 10 12  1  0  0  0
 10 13  1  0  0  0
 13 14  1  0  0  0
 14 15  1  0  0  0
 15 16  1  0  0  0
 15 17  1  0  0  0
  1 18  2  0  0  0
 18 19  1  0  0  0
 19 20  2  0  0  0
 20 21  1  0  0  0
 21 22  2  0  0  0
 22 23  1  0  0  0
 23 24  2  0  0  0
 23 25  1  0  0  0
 22 26  1  0  0  0
 26 27  2  0  0  0
  9  4  1  0  0  0
 27 19  1  0  0  0
 15  6  1  0  0  0
 25 28  1  0  0  0
M  END
>  <CHROM.0>
-16.71606732,-176.02214820,64.81762458,58.94308901,-176.56172323,71.62143483

>  <CHROM.1>
20.69572887,-152.75740778,10.38601671,-161.58923324,-4.23586609,40.42424617
15.20535802,84.20227522,2.58285101,0.53944385,0.42410200

>  <RI>
0

>  <Rbt.Current_Directory>
/extra/banzai2/j5wagner/CELPP/2016_10_17_rdock_implementation/normal_run/tutorialVideo/tutorial_rdock_implementation/full_week_run/4-docking/1fcz/SMCSS_2lbd_docking

>  <Rbt.Executable>
rbdock ($Id: //depot/dev/client3/rdock/2013.1/src/exe/rbdock.cxx#4 $)

>  <Rbt.Library>
libRbt.so (2013.1, Build901 2013/11/27)

>  <Rbt.Parameter_File>
/home/j5wagner/env_00/source/rDock/rDock_2013.1_src//data/scripts/dock.prm

>  <Rbt.Receptor>
/extra/banzai2/j5wagner/CELPP/2016_10_17_rdock_implementation/normal_run/tutorialVideo/tutorial_rdock_implementation/full_week_run/4-docking/1fcz/SMCSS_2lbd_tech_prep/rDockGridGenInput.prm

>  <SCORE>
-32.517

>  <SCORE.INTER>
-26.4352

>  <SCORE.INTER.CONST>
1

>  <SCORE.INTER.POLAR>
-0.916515

>  <SCORE.INTER.REPUL>
0

>  <SCORE.INTER.ROT>
4

>  <SCORE.INTER.VDW>
-32.719

>  <SCORE.INTER.norm>
-0.97908

>  <SCORE.INTRA>
-1.73047

>  <SCORE.INTRA.DIHEDRAL>
-4.43068

>  <SCORE.INTRA.DIHEDRAL.0>
10.7811

>  <SCORE.INTRA.POLAR>
0

>  <SCORE.INTRA.POLAR.0>
0

>  <SCORE.INTRA.REPUL>
0

>  <SCORE.INTRA.REPUL.0>
0

>  <SCORE.INTRA.VDW>
0.48487

>  <SCORE.INTRA.VDW.0>
-0.812999

>  <SCORE.INTRA.norm>
-0.0640916

>  <SCORE.RESTR>
0

>  <SCORE.RESTR.CAVITY>
0

>  <SCORE.RESTR.norm>
0

>  <SCORE.SYSTEM>
-4.35135

>  <SCORE.SYSTEM.CONST>
0

>  <SCORE.SYSTEM.DIHEDRAL>
1.26022

>  <SCORE.SYSTEM.POLAR>
-0.990203

>  <SCORE.SYSTEM.REPUL>
0.154229

>  <SCORE.SYSTEM.VDW>
-2.38591

>  <SCORE.SYSTEM.norm>
-0.161161

>  <SCORE.heavy>
27

>  <SCORE.norm>
-1.20433

$$$$

  rDOCK(R)          3D
libRbt.so/2013.1/901 2013/11/27
 28 30  0  0  0  0  0  0  0  0999 V2000
   40.9213   16.5496   85.7993 C   0  0  0  0  0  0
   42.2328   16.1228   85.2670 C   0  0  0  0  0  0
   43.2718   16.5706   85.8226 O   0  0  0  0  0  0
   42.3773   15.2122   84.1053 C   0  0  0  0  0  0
   43.5971   15.1361   83.4225 C   0  0  0  0  0  0
   43.7634   14.3051   82.2906 C   0  0  0  0  0  0
   42.6790   13.4655   81.8938 C   0  0  0  0  0  0
   41.4402   13.6066   82.5565 C   0  0  0  0  0  0
   41.2920   14.4662   83.6405 C   0  0  0  0  0  0
   42.7860   12.4786   80.7213 C   0  0  0  0  0  0
   42.2062   11.0965   81.1134 C   0  0  0  0  0  0
   41.9807   13.0312   79.5230 C   0  0  0  0  0  0
   44.2602   12.2450   80.3078 C   0  0  0  0  0  0
   45.0476   13.5466   80.2197 C   0  0  0  0  0  0
   45.1274   14.2778   81.5830 C   0  0  0  0  0  0
   45.6233   15.7163   81.2908 C   0  0  0  0  0  0
   46.1557   13.5764   82.5000 C   0  0  0  0  0  0
   39.8915   15.7042   85.9537 C   0  0  0  0  0  0
   38.5667   16.1031   86.4897 C   0  0  0  0  0  0
   38.1237   17.4396   86.5060 C   0  0  0  0  0  0
   36.8690   17.7657   87.0302 C   0  0  0  0  0  0
   36.0301   16.7663   87.5524 C   0  0  0  0  0  0
   34.6982   17.0978   88.1151 C   0  0  0  0  0  0
   34.3358   18.3018   88.1957 O   0  0  0  0  0  0
   33.8293   16.1101   88.5779 O   0  0  0  0  0  0
   36.4853   15.4371   87.5609 C   0  0  0  0  0  0
   37.7390   15.1110   87.0369 C   0  0  0  0  0  0
   34.0489   15.1237   88.5288 H   0  0  0  0  0  0
  1  2  1  0  0  0
  2  3  2  0  0  0
  2  4  1  0  0  0
  4  5  2  0  0  0
  5  6  1  0  0  0
  6  7  2  0  0  0
  7  8  1  0  0  0
  8  9  2  0  0  0
  7 10  1  0  0  0
 10 11  1  0  0  0
 10 12  1  0  0  0
 10 13  1  0  0  0
 13 14  1  0  0  0
 14 15  1  0  0  0
 15 16  1  0  0  0
 15 17  1  0  0  0
  1 18  2  0  0  0
 18 19  1  0  0  0
 19 20  2  0  0  0
 20 21  1  0  0  0
 21 22  2  0  0  0
 22 23  1  0  0  0
 23 24  2  0  0  0
 23 25  1  0  0  0
 22 26  1  0  0  0
 26 27  2  0  0  0
  9  4  1  0  0  0
 27 19  1  0  0  0
 15  6  1  0  0  0
 25 28  1  0  0  0
M  END
>  <CHROM.0>
-169.68856488,-178.48087310,-176.35222288,60.06648841,67.74851682,69.05118108

>  <CHROM.1>
-138.01290292,162.30404466,19.92621337,-3.88412945,-1.86059646,40.77086938
15.07939101,84.26311241,-2.46299666,-0.24700705,-2.34023599

>  <RI>
0

>  <Rbt.Current_Directory>
/extra/banzai2/j5wagner/CELPP/2016_10_17_rdock_implementation/normal_run/tutorialVideo/tutorial_rdock_implementation/full_week_run/4-docking/1fcz/SMCSS_2lbd_docking

>  <Rbt.Executable>
rbdock ($Id: //depot/dev/client3/rdock/2013.1/src/exe/rbdock.cxx#4 $)

>  <Rbt.Library>
libRbt.so (2013.1, Build901 2013/11/27)

>  <Rbt.Parameter_File>
/home/j5wagner/env_00/source/rDock/rDock_2013.1_src//data/scripts/dock.prm

>  <Rbt.Receptor>
/extra/banzai2/j5wagner/CELPP/2016_10_17_rdock_implementation/normal_run/tutorialVideo/tutorial_rdock_implementation/full_week_run/4-docking/1fcz/SMCSS_2lbd_tech_prep/rDockGridGenInput.prm

>  <SCORE>
-32.3025

>  <SCORE.INTER>
-24.4142

>  <SCORE.INTER.CONST>
1

>  <SCORE.INTER.POLAR>
-1.74345

>  <SCORE.INTER.REPUL>
0.0183468

>  <SCORE.INTER.ROT>
4

>  <SCORE.INTER.VDW>
-27.9782

>  <SCORE.INTER.norm>
-0.90423

>  <SCORE.INTRA>
-0.722145

>  <SCORE.INTRA.DIHEDRAL>
-2.92462

>  <SCORE.INTRA.DIHEDRAL.0>
10.7811

>  <SCORE.INTRA.POLAR>
0

>  <SCORE.INTRA.POLAR.0>
0

>  <SCORE.INTRA.REPUL>
0

>  <SCORE.INTRA.REPUL.0>
0

>  <SCORE.INTRA.VDW>
0.740162

>  <SCORE.INTRA.VDW.0>
-0.812999

>  <SCORE.INTRA.norm>
-0.0267461

>  <SCORE.RESTR>
0

>  <SCORE.RESTR.CAVITY>
0

>  <SCORE.RESTR.norm>
0

>  <SCORE.SYSTEM>
-7.16611

>  <SCORE.SYSTEM.CONST>
0

>  <SCORE.SYSTEM.DIHEDRAL>
0.95803

>  <SCORE.SYSTEM.POLAR>
-1.60431

>  <SCORE.SYSTEM.VDW>
-2.19046

>  <SCORE.SYSTEM.norm>
-0.265412

>  <SCORE.heavy>
27

>  <SCORE.norm>
-1.19639

$$$$

  rDOCK(R)          3D
libRbt.so/2013.1/901 2013/11/27
 28 30  0  0  0  0  0  0  0  0999 V2000
   39.2360   13.9812   85.9514 C   0  0  0  0  0  0
   40.1581   12.9755   85.3826 C   0  0  0  0  0  0
   40.2074   11.8408   85.9291 O   0  0  0  0  0  0
   41.0340   13.2479   84.2171 C   0  0  0  0  0  0
   41.7452   14.4513   84.1416 C   0  0  0  0  0  0
   42.5637   14.7613   83.0309 C   0  0  0  0  0  0
   42.7263   13.7799   82.0067 C   0  0  0  0  0  0
   41.9500   12.6023   82.0726 C   0  0  0  0  0  0
   41.1174   12.3429   83.1567 C   0  0  0  0  0  0
   43.6480   13.9954   80.7967 C   0  0  0  0  0  0
   44.5208   12.7409   80.5421 C   0  0  0  0  0  0
   42.7813   14.2577   79.5438 C   0  0  0  0  0  0
   44.6206   15.1786   81.0266 C   0  0  0  0  0  0
   43.9186   16.3962   81.6151 C   0  0  0  0  0  0
   43.3085   16.1054   83.0091 C   0  0  0  0  0  0
   42.3422   17.2739   83.3271 C   0  0  0  0  0  0
   44.4237   16.0798   84.0795 C   0  0  0  0  0  0
   39.0037   15.1654   85.3656 C   0  0  0  0  0  0
   38.0805   16.1911   85.9106 C   0  0  0  0  0  0
   38.0172   17.5035   85.4042 C   0  0  0  0  0  0
   37.1356   18.4368   85.9584 C   0  0  0  0  0  0
   36.3001   18.0824   87.0316 C   0  0  0  0  0  0
   35.3627   19.0629   87.6319 C   0  0  0  0  0  0
   35.4125   20.2716   87.2800 O   0  0  0  0  0  0
   34.4267   18.6897   88.5959 O   0  0  0  0  0  0
   36.3848   16.7807   87.5537 C   0  0  0  0  0  0
   37.2656   15.8479   87.0000 C   0  0  0  0  0  0
   34.3352   17.7384   88.9279 H   0  0  0  0  0  0
  1  2  1  0  0  0
  2  3  2  0  0  0
  2  4  1  0  0  0
  4  5  2  0  0  0
  5  6  1  0  0  0
  6  7  2  0  0  0
  7  8  1  0  0  0
  8  9  2  0  0  0
  7 10  1  0  0  0
 10 11  1  0  0  0
 10 12  1  0  0  0
 10 13  1  0  0  0
 13 14  1  0  0  0
 14 15  1  0  0  0
 15 16  1  0  0  0
 15 17  1  0  0  0
  1 18  2  0  0  0
 18 19  1  0  0  0
 19 20  2  0  0  0
 20 21  1  0  0  0
 21 22  2  0  0  0
 22 23  1  0  0  0
 23 24  2  0  0  0
 23 25  1  0  0  0
 22 26  1  0  0  0
 26 27  2  0  0  0
  9  4  1  0  0  0
 27 19  1  0  0  0
 15  6  1  0  0  0
 25 28  1  0  0  0
M  END
>  <CHROM.0>
-159.03522178,60.83029516,-59.81021799,60.91509398,-177.88279693,172.41637217

>  <CHROM.1>
-172.83822082,44.18496188,169.28429404,-7.89023694,-0.43686925,40.27177071
15.52123784,84.36712431,2.80871053,0.68390676,-0.11459493

>  <RI>
0

>  <Rbt.Current_Directory>
/extra/banzai2/j5wagner/CELPP/2016_10_17_rdock_implementation/normal_run/tutorialVideo/tutorial_rdock_implementation/full_week_run/4-docking/1fcz/SMCSS_2lbd_docking

>  <Rbt.Executable>
rbdock ($Id: //depot/dev/client3/rdock/2013.1/src/exe/rbdock.cxx#4 $)

>  <Rbt.Library>
libRbt.so (2013.1, Build901 2013/11/27)

>  <Rbt.Parameter_File>
/home/j5wagner/env_00/source/rDock/rDock_2013.1_src//data/scripts/dock.prm

>  <Rbt.Receptor>
/extra/banzai2/j5wagner/CELPP/2016_10_17_rdock_implementation/normal_run/tutorialVideo/tutorial_rdock_implementation/full_week_run/4-docking/1fcz/SMCSS_2lbd_tech_prep/rDockGridGenInput.prm

>  <SCORE>
-32.0827

>  <SCORE.INTER>
-23.3341

>  <SCORE.INTER.CONST>
1

>  <SCORE.INTER.POLAR>
-0.916515

>  <SCORE.INTER.REPUL>
0.129926

>  <SCORE.INTER.ROT>
4

>  <SCORE.INTER.VDW>
-30.2676

>  <SCORE.INTER.norm>
-0.864228

>  <SCORE.INTRA>
-1.31959

>  <SCORE.INTRA.DIHEDRAL>
-3.31691

>  <SCORE.INTRA.DIHEDRAL.0>
10.7811

>  <SCORE.INTRA.POLAR>
0

>  <SCORE.INTRA.POLAR.0>
0

>  <SCORE.INTRA.REPUL>
0

>  <SCORE.INTRA.REPUL.0>
0

>  <SCORE.INTRA.VDW>
0.338864

>  <SCORE.INTRA.VDW.0>
-0.812999

>  <SCORE.INTRA.norm>
-0.0488737

>  <SCORE.RESTR>
0

>  <SCORE.RESTR.CAVITY>
0

>  <SCORE.RESTR.norm>
0

>  <SCORE.SYSTEM>
-7.42902

>  <SCORE.SYSTEM.CONST>
0

>  <SCORE.SYSTEM.DIHEDRAL>
0.975615

>  <SCORE.SYSTEM.POLAR>
-1.6581

>  <SCORE.SYSTEM.VDW>
-2.2793

>  <SCORE.SYSTEM.norm>
-0.275149

>  <SCORE.heavy>
27

>  <SCORE.norm>
-1.18825

$$$$

  rDOCK(R)          3D
libRbt.so/2013.1/901 2013/11/27
 28 30  0  0  0  0  0  0  0  0999 V2000
   39.7262   13.7133   86.0617 C   0  0  0  0  0  0
   40.8057   12.9310   85.4231 C   0  0  0  0  0  0
   41.2159   11.8956   86.0133 O   0  0  0  0  0  0
   41.4344   13.3190   84.1370 C   0  0  0  0  0  0
   42.1773   14.5023   84.0494 C   0  0  0  0  0  0
   42.7633   14.9224   82.8330 C   0  0  0  0  0  0
   42.6580   14.0692   81.6931 C   0  0  0  0  0  0
   41.8509   12.9145   81.7880 C   0  0  0  0  0  0
   41.2483   12.5482   82.9874 C   0  0  0  0  0  0
   43.3192   14.4048   80.3476 C   0  0  0  0  0  0
   44.0526   13.1668   79.7732 C   0  0  0  0  0  0
   42.2269   14.8422   79.3449 C   0  0  0  0  0  0
   44.3797   15.5234   80.4988 C   0  0  0  0  0  0
   43.8804   16.6793   81.3569 C   0  0  0  0  0  0
   43.5577   16.2377   82.8064 C   0  0  0  0  0  0
   42.7415   17.3853   83.4524 C   0  0  0  0  0  0
   44.8674   16.0506   83.6062 C   0  0  0  0  0  0
   39.2878   14.8812   85.5687 C   0  0  0  0  0  0
   38.2035   15.6848   86.1852 C   0  0  0  0  0  0
   37.8123   16.9427   85.6881 C   0  0  0  0  0  0
   36.7897   17.6655   86.3104 C   0  0  0  0  0  0
   36.1371   17.1508   87.4438 C   0  0  0  0  0  0
   35.0533   17.9080   88.1164 C   0  0  0  0  0  0
   34.5121   18.8813   87.5272 O   0  0  0  0  0  0
   34.6185   17.5841   89.4012 O   0  0  0  0  0  0
   36.5479   15.9082   87.9550 C   0  0  0  0  0  0
   37.5697   15.1857   87.3332 C   0  0  0  0  0  0
   33.8749   18.0864   89.8683 H   0  0  0  0  0  0
  1  2  1  0  0  0
  2  3  2  0  0  0
  2  4  1  0  0  0
  4  5  2  0  0  0
  5  6  1  0  0  0
  6  7  2  0  0  0
  7  8  1  0  0  0
  8  9  2  0  0  0
  7 10  1  0  0  0
 10 11  1  0  0  0
 10 12  1  0  0  0
 10 13  1  0  0  0
 13 14  1  0  0  0
 14 15  1  0  0  0
 15 16  1  0  0  0
 15 17  1  0  0  0
  1 18  2  0  0  0
 18 19  1  0  0  0
 19 20  2  0  0  0
 20 21  1  0  0  0
 21 22  2  0  0  0
 22 23  1  0  0  0
 23 24  2  0  0  0
 23 25  1  0  0  0
 22 26  1  0  0  0
 26 27  2  0  0  0
  9  4  1  0  0  0
 27 19  1  0  0  0
 15  6  1  0  0  0
 25 28  1  0  0  0
M  END
>  <CHROM.0>
-166.92625600,62.06979488,60.33280175,-57.90725518,-175.63314022,70.28907378

>  <CHROM.1>
174.90555543,65.07160395,176.44079363,14.94649092,-179.42560308,40.33181410
15.32952704,84.37472888,3.09922267,0.73804437,-0.32036626

>  <RI>
0

>  <Rbt.Current_Directory>
/extra/banzai2/j5wagner/CELPP/2016_10_17_rdock_implementation/normal_run/tutorialVideo/tutorial_rdock_implementation/full_week_run/4-docking/1fcz/SMCSS_2lbd_docking

>  <Rbt.Executable>
rbdock ($Id: //depot/dev/client3/rdock/2013.1/src/exe/rbdock.cxx#4 $)

>  <Rbt.Library>
libRbt.so (2013.1, Build901 2013/11/27)

>  <Rbt.Parameter_File>
/home/j5wagner/env_00/source/rDock/rDock_2013.1_src//data/scripts/dock.prm

>  <Rbt.Receptor>
/extra/banzai2/j5wagner/CELPP/2016_10_17_rdock_implementation/normal_run/tutorialVideo/tutorial_rdock_implementation/full_week_run/4-docking/1fcz/SMCSS_2lbd_tech_prep/rDockGridGenInput.prm

>  <SCORE>
-32.0811

>  <SCORE.INTER>
-25.1468

>  <SCORE.INTER.CONST>
1

>  <SCORE.INTER.POLAR>
-1.76504

>  <SCORE.INTER.REPUL>
0.498781

>  <SCORE.INTER.ROT>
4

>  <SCORE.INTER.VDW>
-31.0396

>  <SCORE.INTER.norm>
-0.931364

>  <SCORE.INTRA>
0.574547

>  <SCORE.INTRA.DIHEDRAL>
0.979876

>  <SCORE.INTRA.DIHEDRAL.0>
10.7811

>  <SCORE.INTRA.POLAR>
0

>  <SCORE.INTRA.POLAR.0>
0

>  <SCORE.INTRA.REPUL>
0

>  <SCORE.INTRA.REPUL.0>
0

>  <SCORE.INTRA.VDW>
0.0846092

>  <SCORE.INTRA.VDW.0>
-0.812999

>  <SCORE.INTRA.norm>
0.0212795

>  <SCORE.RESTR>
0

>  <SCORE.RESTR.CAVITY>
0

>  <SCORE.RESTR.norm>
0

>  <SCORE.SYSTEM>
-7.5088

>  <SCORE.SYSTEM.CONST>
0

>  <SCORE.SYSTEM.DIHEDRAL>
0.916703

>  <SCORE.SYSTEM.POLAR>
-1.6187

>  <SCORE.SYSTEM.VDW>
-2.46356

>  <SCORE.SYSTEM.norm>
-0.278104

>  <SCORE.heavy>
27

>  <SCORE.norm>
-1.18819

$$$$

  rDOCK(R)          3D
libRbt.so/2013.1/901 2013/11/27
 28 30  0  0  0  0  0  0  0  0999 V2000
   40.9203   16.5607   85.8188 C   0  0  0  0  0  0
   42.2307   16.1426   85.2774 C   0  0  0  0  0  0
   43.2706   16.5976   85.8254 O   0  0  0  0  0  0
   42.3732   15.2323   84.1151 C   0  0  0  0  0  0
   43.5921   15.1555   83.4310 C   0  0  0  0  0  0
   43.7564   14.3249   82.2984 C   0  0  0  0  0  0
   42.6708   13.4865   81.9024 C   0  0  0  0  0  0
   41.4329   13.6284   82.5666 C   0  0  0  0  0  0
   41.2867   14.4876   83.6511 C   0  0  0  0  0  0
   42.7756   12.5001   80.7292 C   0  0  0  0  0  0
   42.1950   11.1183   81.1213 C   0  0  0  0  0  0
   41.9696   13.0540   79.5321 C   0  0  0  0  0  0
   44.2492   12.2654   80.3140 C   0  0  0  0  0  0
   45.0377   13.5662   80.2257 C   0  0  0  0  0  0
   45.1197   14.2968   81.5893 C   0  0  0  0  0  0
   45.6165   15.7350   81.2973 C   0  0  0  0  0  0
   46.1483   13.5940   82.5048 C   0  0  0  0  0  0
   39.8898   15.7135   85.9589 C   0  0  0  0  0  0
   38.5659   16.1037   86.5034 C   0  0  0  0  0  0
   38.1132   17.4369   86.5201 C   0  0  0  0  0  0
   36.8599   17.7548   87.0527 C   0  0  0  0  0  0
   36.0321   16.7503   87.5830 C   0  0  0  0  0  0
   34.7019   17.0731   88.1545 C   0  0  0  0  0  0
   34.3198   18.2724   88.2100 O   0  0  0  0  0  0
   33.8560   16.0827   88.6528 O   0  0  0  0  0  0
   36.4973   15.4245   87.5910 C   0  0  0  0  0  0
   37.7496   15.1066   87.0587 C   0  0  0  0  0  0
   34.0988   15.1007   88.6395 H   0  0  0  0  0  0
  1  2  1  0  0  0
  2  3  2  0  0  0
  2  4  1  0  0  0
  4  5  2  0  0  0
  5  6  1  0  0  0
  6  7  2  0  0  0
  7  8  1  0  0  0
  8  9  2  0  0  0
  7 10  1  0  0  0
 10 11  1  0  0  0
 10 12  1  0  0  0
 10 13  1  0  0  0
 13 14  1  0  0  0
 14 15  1  0  0  0
 15 16  1  0  0  0
 15 17  1  0  0  0
  1 18  2  0  0  0
 18 19  1  0  0  0
 19 20  2  0  0  0
 20 21  1  0  0  0
 21 22  2  0  0  0
 22 23  1  0  0  0
 23 24  2  0  0  0
 23 25  1  0  0  0
 22 26  1  0  0  0
 26 27  2  0  0  0
  9  4  1  0  0  0
 27 19  1  0  0  0
 15  6  1  0  0  0
 25 28  1  0  0  0
M  END
>  <CHROM.0>
-158.97001349,-58.57666749,63.38369318,177.51354137,68.56789570,173.00965669

>  <CHROM.1>
-139.22667472,162.86634412,21.23846804,-2.43237014,-0.79544601,40.76734009
15.08748803,84.27870146,-2.46340754,-0.25172102,-2.33912857

>  <RI>
0

>  <Rbt.Current_Directory>
/extra/banzai2/j5wagner/CELPP/2016_10_17_rdock_implementation/normal_run/tutorialVideo/tutorial_rdock_implementation/full_week_run/4-docking/1fcz/SMCSS_2lbd_docking

>  <Rbt.Executable>
rbdock ($Id: //depot/dev/client3/rdock/2013.1/src/exe/rbdock.cxx#4 $)

>  <Rbt.Library>
libRbt.so (2013.1, Build901 2013/11/27)

>  <Rbt.Parameter_File>
/home/j5wagner/env_00/source/rDock/rDock_2013.1_src//data/scripts/dock.prm

>  <Rbt.Receptor>
/extra/banzai2/j5wagner/CELPP/2016_10_17_rdock_implementation/normal_run/tutorialVideo/tutorial_rdock_implementation/full_week_run/4-docking/1fcz/SMCSS_2lbd_tech_prep/rDockGridGenInput.prm

>  <SCORE>
-31.7908

>  <SCORE.INTER>
-24.2732

>  <SCORE.INTER.CONST>
1

>  <SCORE.INTER.POLAR>
-1.73546

>  <SCORE.INTER.REPUL>
0.0153365

>  <SCORE.INTER.ROT>
4

>  <SCORE.INTER.VDW>
-27.8493

>  <SCORE.INTER.norm>
-0.899007

>  <SCORE.INTRA>
-0.76344

>  <SCORE.INTRA.DIHEDRAL>
-3.08266

>  <SCORE.INTRA.DIHEDRAL.0>
10.7811

>  <SCORE.INTRA.POLAR>
0

>  <SCORE.INTRA.POLAR.0>
0

>  <SCORE.INTRA.REPUL>
0

>  <SCORE.INTRA.REPUL.0>
0

>  <SCORE.INTRA.VDW>
0.777892

>  <SCORE.INTRA.VDW.0>
-0.812999

>  <SCORE.INTRA.norm>
-0.0282756

>  <SCORE.RESTR>
0

>  <SCORE.RESTR.CAVITY>
0

>  <SCORE.RESTR.norm>
0

>  <SCORE.SYSTEM>
-6.75416

>  <SCORE.SYSTEM.CONST>
0

>  <SCORE.SYSTEM.DIHEDRAL>
1.34905

>  <SCORE.SYSTEM.POLAR>
-1.65661

>  <SCORE.SYSTEM.VDW>
-1.7962

>  <SCORE.SYSTEM.norm>
-0.250154

>  <SCORE.heavy>
27

>  <SCORE.norm>
-1.17744

$$$$

  rDOCK(R)          3D
libRbt.so/2013.1/901 2013/11/27
 28 30  0  0  0  0  0  0  0  0999 V2000
   39.3154   15.1502   84.8754 C   0  0  0  0  0  0
   40.0471   14.0012   84.3010 C   0  0  0  0  0  0
   39.5240   12.8585   84.3957 O   0  0  0  0  0  0
   41.3681   14.1317   83.6394 C   0  0  0  0  0  0
   41.6347   13.4232   82.4618 C   0  0  0  0  0  0
   42.8931   13.4958   81.8208 C   0  0  0  0  0  0
   43.8800   14.3810   82.3507 C   0  0  0  0  0  0
   43.6120   15.0348   83.5731 C   0  0  0  0  0  0
   42.3795   14.9099   84.2067 C   0  0  0  0  0  0
   45.2506   14.5813   81.6861 C   0  0  0  0  0  0
   45.6023   16.0875   81.5981 C   0  0  0  0  0  0
   46.3300   13.8697   82.5335 C   0  0  0  0  0  0
   45.2655   14.0324   80.2378 C   0  0  0  0  0  0
   44.6164   12.6577   80.1353 C   0  0  0  0  0  0
   43.1202   12.6836   80.5360 C   0  0  0  0  0  0
   42.6844   11.2100   80.7338 C   0  0  0  0  0  0
   42.2779   13.3001   79.3956 C   0  0  0  0  0  0
   38.2980   15.0044   85.7373 C   0  0  0  0  0  0
   37.5494   16.1384   86.3331 C   0  0  0  0  0  0
   37.7105   17.4682   85.8989 C   0  0  0  0  0  0
   36.9874   18.5038   86.4991 C   0  0  0  0  0  0
   36.0904   18.2361   87.5474 C   0  0  0  0  0  0
   35.3195   19.3250   88.1959 C   0  0  0  0  0  0
   34.7125   19.1026   89.2773 O   0  0  0  0  0  0
   35.2305   20.5980   87.6337 O   0  0  0  0  0  0
   35.9520   16.9125   87.9981 C   0  0  0  0  0  0
   36.6742   15.8775   87.3984 C   0  0  0  0  0  0
   34.6882   21.3425   88.0522 H   0  0  0  0  0  0
  1  2  1  0  0  0
  2  3  2  0  0  0
  2  4  1  0  0  0
  4  5  2  0  0  0
  5  6  1  0  0  0
  6  7  2  0  0  0
  7  8  1  0  0  0
  8  9  2  0  0  0
  7 10  1  0  0  0
 10 11  1  0  0  0
 10 12  1  0  0  0
 10 13  1  0  0  0
 13 14  1  0  0  0
 14 15  1  0  0  0
 15 16  1  0  0  0
 15 17  1  0  0  0
  1 18  2  0  0  0
 18 19  1  0  0  0
 19 20  2  0  0  0
 20 21  1  0  0  0
 21 22  2  0  0  0
 22 23  1  0  0  0
 23 24  2  0  0  0
 23 25  1  0  0  0
 22 26  1  0  0  0
 26 27  2  0  0  0
  9  4  1  0  0  0
 27 19  1  0  0  0
 15  6  1  0  0  0
 25 28  1  0  0  0
M  END
>  <CHROM.0>
-159.34409435,-57.36454155,-173.63558326,179.70760892,-178.33081824,-57.94772551

>  <CHROM.1>
15.43305042,-138.26530701,9.55750054,-167.24385616,178.32216589,40.51925377
15.32079727,84.10792511,2.48371459,0.43608677,0.43701253

>  <RI>
0

>  <Rbt.Current_Directory>
/extra/banzai2/j5wagner/CELPP/2016_10_17_rdock_implementation/normal_run/tutorialVideo/tutorial_rdock_implementation/full_week_run/4-docking/1fcz/SMCSS_2lbd_docking

>  <Rbt.Executable>
rbdock ($Id: //depot/dev/client3/rdock/2013.1/src/exe/rbdock.cxx#4 $)

>  <Rbt.Library>
libRbt.so (2013.1, Build901 2013/11/27)

>  <Rbt.Parameter_File>
/home/j5wagner/env_00/source/rDock/rDock_2013.1_src//data/scripts/dock.prm

>  <Rbt.Receptor>
/extra/banzai2/j5wagner/CELPP/2016_10_17_rdock_implementation/normal_run/tutorialVideo/tutorial_rdock_implementation/full_week_run/4-docking/1fcz/SMCSS_2lbd_tech_prep/rDockGridGenInput.prm

>  <SCORE>
-31.681

>  <SCORE.INTER>
-23.9575

>  <SCORE.INTER.CONST>
1

>  <SCORE.INTER.POLAR>
0

>  <SCORE.INTER.REPUL>
0

>  <SCORE.INTER.ROT>
4

>  <SCORE.INTER.VDW>
-33.3575

>  <SCORE.INTER.norm>
-0.887315

>  <SCORE.INTRA>
-1.00053

>  <SCORE.INTRA.DIHEDRAL>
-2.80852

>  <SCORE.INTRA.DIHEDRAL.0>
10.7811

>  <SCORE.INTRA.POLAR>
0

>  <SCORE.INTRA.POLAR.0>
0

>  <SCORE.INTRA.REPUL>
0

>  <SCORE.INTRA.REPUL.0>
0

>  <SCORE.INTRA.VDW>
0.403732

>  <SCORE.INTRA.VDW.0>
-0.812999

>  <SCORE.INTRA.norm>
-0.0370565

>  <SCORE.RESTR>
0

>  <SCORE.RESTR.CAVITY>
0

>  <SCORE.RESTR.norm>
0

>  <SCORE.SYSTEM>
-6.72294

>  <SCORE.SYSTEM.CONST>
0

>  <SCORE.SYSTEM.DIHEDRAL>
0.858304

>  <SCORE.SYSTEM.POLAR>
-1.66106

>  <SCORE.SYSTEM.REPUL>
0.162058

>  <SCORE.SYSTEM.VDW>
-2.31476

>  <SCORE.SYSTEM.norm>
-0.248998

>  <SCORE.heavy>
27

>  <SCORE.norm>
-1.17337

$$$$

  rDOCK(R)          3D
libRbt.so/2013.1/901 2013/11/27
 28 30  0  0  0  0  0  0  0  0999 V2000
   39.4671   14.7407   85.4680 C   0  0  0  0  0  0
   40.2920   13.5824   85.0640 C   0  0  0  0  0  0
   40.2248   12.5350   85.7618 O   0  0  0  0  0  0
   41.2018   13.6059   83.8929 C   0  0  0  0  0  0
   42.0537   14.6979   83.6895 C   0  0  0  0  0  0
   42.9107   14.7717   82.5671 C   0  0  0  0  0  0
   42.9600   13.6617   81.6707 C   0  0  0  0  0  0
   42.0467   12.6017   81.8599 C   0  0  0  0  0  0
   41.1819   12.5761   82.9497 C   0  0  0  0  0  0
   43.9087   13.6181   80.4630 C   0  0  0  0  0  0
   44.6250   12.2470   80.3778 C   0  0  0  0  0  0
   43.0880   13.8289   79.1701 C   0  0  0  0  0  0
   45.0157   14.6959   80.5708 C   0  0  0  0  0  0
   44.4623   16.0506   80.9954 C   0  0  0  0  0  0
   43.8127   16.0049   82.4011 C   0  0  0  0  0  0
   42.9927   17.3102   82.5576 C   0  0  0  0  0  0
   44.9098   15.9759   83.4900 C   0  0  0  0  0  0
   38.5129   14.6590   86.4072 C   0  0  0  0  0  0
   37.6737   15.8050   86.8361 C   0  0  0  0  0  0
   36.6691   15.6876   87.8157 C   0  0  0  0  0  0
   35.8986   16.7965   88.1793 C   0  0  0  0  0  0
   36.1113   18.0458   87.5716 C   0  0  0  0  0  0
   35.2993   19.2299   87.9445 C   0  0  0  0  0  0
   35.4304   20.3054   87.3014 O   0  0  0  0  0  0
   34.3956   19.1965   89.0060 O   0  0  0  0  0  0
   37.0951   18.1544   86.5743 C   0  0  0  0  0  0
   37.8653   17.0465   86.2110 C   0  0  0  0  0  0
   34.2721   18.3811   89.5919 H   0  0  0  0  0  0
  1  2  1  0  0  0
  2  3  2  0  0  0
  2  4  1  0  0  0
  4  5  2  0  0  0
  5  6  1  0  0  0
  6  7  2  0  0  0
  7  8  1  0  0  0
  8  9  2  0  0  0
  7 10  1  0  0  0
 10 11  1  0  0  0
 10 12  1  0  0  0
 10 13  1  0  0  0
 13 14  1  0  0  0
 14 15  1  0  0  0
 15 16  1  0  0  0
 15 17  1  0  0  0
  1 18  2  0  0  0
 18 19  1  0  0  0
 19 20  2  0  0  0
 20 21  1  0  0  0
 21 22  2  0  0  0
 22 23  1  0  0  0
 23 24  2  0  0  0
 23 25  1  0  0  0
 22 26  1  0  0  0
 26 27  2  0  0  0
  9  4  1  0  0  0
 27 19  1  0  0  0
 15  6  1  0  0  0
 25 28  1  0  0  0
M  END
>  <CHROM.0>
-159.63546206,-178.45917547,-60.26825302,-60.00604572,-177.32022034,-58.58200007

>  <CHROM.1>
-10.40227550,45.89457761,179.33570410,-173.71892428,2.21634073,40.36680041
15.50305058,84.33183771,2.79490528,0.70015666,-0.03231683

>  <RI>
0

>  <Rbt.Current_Directory>
/extra/banzai2/j5wagner/CELPP/2016_10_17_rdock_implementation/normal_run/tutorialVideo/tutorial_rdock_implementation/full_week_run/4-docking/1fcz/SMCSS_2lbd_docking

>  <Rbt.Executable>
rbdock ($Id: //depot/dev/client3/rdock/2013.1/src/exe/rbdock.cxx#4 $)

>  <Rbt.Library>
libRbt.so (2013.1, Build901 2013/11/27)

>  <Rbt.Parameter_File>
/home/j5wagner/env_00/source/rDock/rDock_2013.1_src//data/scripts/dock.prm

>  <Rbt.Receptor>
/extra/banzai2/j5wagner/CELPP/2016_10_17_rdock_implementation/normal_run/tutorialVideo/tutorial_rdock_implementation/full_week_run/4-docking/1fcz/SMCSS_2lbd_tech_prep/rDockGridGenInput.prm

>  <SCORE>
-31.6397

>  <SCORE.INTER>
-23.892

>  <SCORE.INTER.CONST>
1

>  <SCORE.INTER.POLAR>
-0.868064

>  <SCORE.INTER.REPUL>
0.0240529

>  <SCORE.INTER.ROT>
4

>  <SCORE.INTER.VDW>
-30.4608

>  <SCORE.INTER.norm>
-0.884888

>  <SCORE.INTRA>
-0.945897

>  <SCORE.INTRA.DIHEDRAL>
-3.2344

>  <SCORE.INTRA.DIHEDRAL.0>
10.7811

>  <SCORE.INTRA.POLAR>
0

>  <SCORE.INTRA.POLAR.0>
0

>  <SCORE.INTRA.REPUL>
0

>  <SCORE.INTRA.REPUL.0>
0

>  <SCORE.INTRA.VDW>
0.671305

>  <SCORE.INTRA.VDW.0>
-0.812999

>  <SCORE.INTRA.norm>
-0.0350332

>  <SCORE.RESTR>
0

>  <SCORE.RESTR.CAVITY>
0

>  <SCORE.RESTR.norm>
0

>  <SCORE.SYSTEM>
-6.80183

>  <SCORE.SYSTEM.CONST>
0

>  <SCORE.SYSTEM.DIHEDRAL>
0.685829

>  <SCORE.SYSTEM.POLAR>
-1.66043

>  <SCORE.SYSTEM.REPUL>
0.159392

>  <SCORE.SYSTEM.VDW>
-2.29624

>  <SCORE.SYSTEM.norm>
-0.25192

>  <SCORE.heavy>
27

>  <SCORE.norm>
-1.17184

$$$$

  rDOCK(R)          3D
libRbt.so/2013.1/901 2013/11/27
 28 30  0  0  0  0  0  0  0  0999 V2000
   39.3462   14.4725   85.0614 C   0  0  0  0  0  0
   40.2648   13.4442   84.5285 C   0  0  0  0  0  0
   39.9764   12.2331   84.7250 O   0  0  0  0  0  0
   41.5106   13.7739   83.7942 C   0  0  0  0  0  0
   41.7684   13.1830   82.5516 C   0  0  0  0  0  0
   42.9601   13.4466   81.8374 C   0  0  0  0  0  0
   43.8770   14.4040   82.3675 C   0  0  0  0  0  0
   43.6272   14.9375   83.6507 C   0  0  0  0  0  0
   42.4666   14.6257   84.3518 C   0  0  0  0  0  0
   45.1638   14.8089   81.6322 C   0  0  0  0  0  0
   45.3358   16.3486   81.6358 C   0  0  0  0  0  0
   46.3758   14.1739   82.3515 C   0  0  0  0  0  0
   45.1343   14.3649   80.1487 C   0  0  0  0  0  0
   44.6388   12.9333   79.9850 C   0  0  0  0  0  0
   43.1826   12.7556   80.4829 C   0  0  0  0  0  0
   42.9317   11.2309   80.5965 C   0  0  0  0  0  0
   42.1948   13.3442   79.4496 C   0  0  0  0  0  0
   38.5537   14.2574   86.1220 C   0  0  0  0  0  0
   37.6264   15.2717   86.6812 C   0  0  0  0  0  0
   37.4057   16.5203   86.0690 C   0  0  0  0  0  0
   36.5276   17.4464   86.6406 C   0  0  0  0  0  0
   35.8528   17.1484   87.8370 C   0  0  0  0  0  0
   34.9212   18.1224   88.4568 C   0  0  0  0  0  0
   34.4636   19.0740   87.7695 O   0  0  0  0  0  0
   34.5425   18.0275   89.7955 O   0  0  0  0  0  0
   36.0956   15.9133   88.4612 C   0  0  0  0  0  0
   36.9729   14.9877   87.8901 C   0  0  0  0  0  0
   34.8688   17.2878   90.4037 H   0  0  0  0  0  0
  1  2  1  0  0  0
  2  3  2  0  0  0
  2  4  1  0  0  0
  4  5  2  0  0  0
  5  6  1  0  0  0
  6  7  2  0  0  0
  7  8  1  0  0  0
  8  9  2  0  0  0
  7 10  1  0  0  0
 10 11  1  0  0  0
 10 12  1  0  0  0
 10 13  1  0  0  0
 13 14  1  0  0  0
 14 15  1  0  0  0
 15 16  1  0  0  0
 15 17  1  0  0  0
  1 18  2  0  0  0
 18 19  1  0  0  0
 19 20  2  0  0  0
 20 21  1  0  0  0
 21 22  2  0  0  0
 22 23  1  0  0  0
 23 24  2  0  0  0
 23 25  1  0  0  0
 22 26  1  0  0  0
 26 27  2  0  0  0
  9  4  1  0  0  0
 27 19  1  0  0  0
 15  6  1  0  0  0
 25 28  1  0  0  0
M  END
>  <CHROM.0>
-161.24062097,59.96305741,-60.58558380,-179.69834855,179.10733952,-58.94173084

>  <CHROM.1>
26.11959735,-128.83864601,5.97055853,17.83639348,-0.99963524,40.49372242
14.87762236,84.25637932,2.61032856,0.53382101,0.39091060

>  <RI>
0

>  <Rbt.Current_Directory>
/extra/banzai2/j5wagner/CELPP/2016_10_17_rdock_implementation/normal_run/tutorialVideo/tutorial_rdock_implementation/full_week_run/4-docking/1fcz/SMCSS_2lbd_docking

>  <Rbt.Executable>
rbdock ($Id: //depot/dev/client3/rdock/2013.1/src/exe/rbdock.cxx#4 $)

>  <Rbt.Library>
libRbt.so (2013.1, Build901 2013/11/27)

>  <Rbt.Parameter_File>
/home/j5wagner/env_00/source/rDock/rDock_2013.1_src//data/scripts/dock.prm

>  <Rbt.Receptor>
/extra/banzai2/j5wagner/CELPP/2016_10_17_rdock_implementation/normal_run/tutorialVideo/tutorial_rdock_implementation/full_week_run/4-docking/1fcz/SMCSS_2lbd_tech_prep/rDockGridGenInput.prm

>  <SCORE>
-31.4848

>  <SCORE.INTER>
-25.3026

>  <SCORE.INTER.CONST>
1

>  <SCORE.INTER.POLAR>
-0.559296

>  <SCORE.INTER.REPUL>
0

>  <SCORE.INTER.ROT>
4

>  <SCORE.INTER.VDW>
-32.801

>  <SCORE.INTER.norm>
-0.937133

>  <SCORE.INTRA>
0.64808

>  <SCORE.INTRA.DIHEDRAL>
1.01333

>  <SCORE.INTRA.DIHEDRAL.0>
10.7811

>  <SCORE.INTRA.POLAR>
0

>  <SCORE.INTRA.POLAR.0>
0

>  <SCORE.INTRA.REPUL>
0

>  <SCORE.INTRA.REPUL.0>
0

>  <SCORE.INTRA.VDW>
0.141413

>  <SCORE.INTRA.VDW.0>
-0.812999

>  <SCORE.INTRA.norm>
0.024003

>  <SCORE.RESTR>
0

>  <SCORE.RESTR.CAVITY>
0

>  <SCORE.RESTR.norm>
0

>  <SCORE.SYSTEM>
-6.83027

>  <SCORE.SYSTEM.CONST>
0

>  <SCORE.SYSTEM.DIHEDRAL>
0.55719

>  <SCORE.SYSTEM.POLAR>
-1.65088

>  <SCORE.SYSTEM.REPUL>
0.157866

>  <SCORE.SYSTEM.VDW>
-2.28521

>  <SCORE.SYSTEM.norm>
-0.252973

>  <SCORE.heavy>
27

>  <SCORE.norm>
-1.1661

$$$$

  rDOCK(R)          3D
libRbt.so/2013.1/901 2013/11/27
 28 30  0  0  0  0  0  0  0  0999 V2000
   38.8864   13.7996   85.0273 C   0  0  0  0  0  0
   39.7652   12.8591   84.3003 C   0  0  0  0  0  0
   39.3379   11.6924   84.0884 O   0  0  0  0  0  0
   41.1243   13.2208   83.8294 C   0  0  0  0  0  0
   41.5986   14.5273   83.9959 C   0  0  0  0  0  0
   42.8753   14.9184   83.5301 C   0  0  0  0  0  0
   43.7250   13.9274   82.9520 C   0  0  0  0  0  0
   43.2017   12.6339   82.7363 C   0  0  0  0  0  0
   41.9239   12.2883   83.1649 C   0  0  0  0  0  0
   45.1536   14.2390   82.4805 C   0  0  0  0  0  0
   46.1422   13.1518   82.9714 C   0  0  0  0  0  0
   45.1785   14.2691   80.9352 C   0  0  0  0  0  0
   45.6567   15.5902   83.0461 C   0  0  0  0  0  0
   44.6097   16.6908   82.9273 C   0  0  0  0  0  0
   43.3284   16.3722   83.7377 C   0  0  0  0  0  0
   42.2373   17.3615   83.2568 C   0  0  0  0  0  0
   43.5828   16.6096   85.2440 C   0  0  0  0  0  0
   38.8798   15.1192   84.7867 C   0  0  0  0  0  0
   38.0058   16.0854   85.4966 C   0  0  0  0  0  0
   37.1138   15.6983   86.5150 C   0  0  0  0  0  0
   36.3042   16.6465   87.1483 C   0  0  0  0  0  0
   36.3644   18.0008   86.7775 C   0  0  0  0  0  0
   35.5090   19.0170   87.4379 C   0  0  0  0  0  0
   35.6861   20.2395   87.1898 O   0  0  0  0  0  0
   34.5134   18.6610   88.3470 O   0  0  0  0  0  0
   37.2347   18.3807   85.7419 C   0  0  0  0  0  0
   38.0439   17.4334   85.1091 C   0  0  0  0  0  0
   34.3246   17.7000   88.6007 H   0  0  0  0  0  0
  1  2  1  0  0  0
  2  3  2  0  0  0
  2  4  1  0  0  0
  4  5  2  0  0  0
  5  6  1  0  0  0
  6  7  2  0  0  0
  7  8  1  0  0  0
  8  9  2  0  0  0
  7 10  1  0  0  0
 10 11  1  0  0  0
 10 12  1  0  0  0
 10 13  1  0  0  0
 13 14  1  0  0  0
 14 15  1  0  0  0
 15 16  1  0  0  0
 15 17  1  0  0  0
  1 18  2  0  0  0
 18 19  1  0  0  0
 19 20  2  0  0  0
 20 21  1  0  0  0
 21 22  2  0  0  0
 22 23  1  0  0  0
 23 24  2  0  0  0
 23 25  1  0  0  0
 22 26  1  0  0  0
 26 27  2  0  0  0
  9  4  1  0  0  0
 27 19  1  0  0  0
 15  6  1  0  0  0
 25 28  1  0  0  0
M  END
>  <CHROM.0>
-159.17308794,62.59085417,61.95958496,-178.81058119,-176.85869396,70.48753458

>  <CHROM.1>
-147.27337124,-3.85622236,1.22739583,172.29380388,-0.01702641,40.57984128
15.57586849,84.56787792,2.66473886,0.38043395,0.20666523

>  <RI>
0

>  <Rbt.Current_Directory>
/extra/banzai2/j5wagner/CELPP/2016_10_17_rdock_implementation/normal_run/tutorialVideo/tutorial_rdock_implementation/full_week_run/4-docking/1fcz/SMCSS_2lbd_docking

>  <Rbt.Executable>
rbdock ($Id: //depot/dev/client3/rdock/2013.1/src/exe/rbdock.cxx#4 $)

>  <Rbt.Library>
libRbt.so (2013.1, Build901 2013/11/27)

>  <Rbt.Parameter_File>
/home/j5wagner/env_00/source/rDock/rDock_2013.1_src//data/scripts/dock.prm

>  <Rbt.Receptor>
/extra/banzai2/j5wagner/CELPP/2016_10_17_rdock_implementation/normal_run/tutorialVideo/tutorial_rdock_implementation/full_week_run/4-docking/1fcz/SMCSS_2lbd_tech_prep/rDockGridGenInput.prm

>  <SCORE>
-31.2314

>  <SCORE.INTER>
-20.9503

>  <SCORE.INTER.CONST>
1

>  <SCORE.INTER.POLAR>
-0.916515

>  <SCORE.INTER.REPUL>
0

>  <SCORE.INTER.ROT>
4

>  <SCORE.INTER.VDW>
-27.2341

>  <SCORE.INTER.norm>
-0.775936

>  <SCORE.INTRA>
-2.65794

>  <SCORE.INTRA.DIHEDRAL>
-7.07647

>  <SCORE.INTRA.DIHEDRAL.0>
10.7811

>  <SCORE.INTRA.POLAR>
0

>  <SCORE.INTRA.POLAR.0>
0

>  <SCORE.INTRA.REPUL>
0

>  <SCORE.INTRA.REPUL.0>
0

>  <SCORE.INTRA.VDW>
0.88029

>  <SCORE.INTRA.VDW.0>
-0.812999

>  <SCORE.INTRA.norm>
-0.0984424

>  <SCORE.RESTR>
0

>  <SCORE.RESTR.CAVITY>
0

>  <SCORE.RESTR.norm>
0

>  <SCORE.SYSTEM>
-7.62323

>  <SCORE.SYSTEM.CONST>
0

>  <SCORE.SYSTEM.DIHEDRAL>
1.28104

>  <SCORE.SYSTEM.POLAR>
-1.65942

>  <SCORE.SYSTEM.VDW>
-2.62171

>  <SCORE.SYSTEM.norm>
-0.282342

>  <SCORE.heavy>
27

>  <SCORE.norm>
-1.15672

$$$$

  rDOCK(R)          3D
libRbt.so/2013.1/901 2013/11/27
 28 30  0  0  0  0  0  0  0  0999 V2000
   39.0960   13.7209   85.0719 C   0  0  0  0  0  0
   39.9442   12.8297   84.2525 C   0  0  0  0  0  0
   39.5024   11.6826   83.9740 O   0  0  0  0  0  0
   41.2896   13.2173   83.7632 C   0  0  0  0  0  0
   41.7440   14.5309   83.9302 C   0  0  0  0  0  0
   43.0064   14.9466   83.4475 C   0  0  0  0  0  0
   43.8641   13.9736   82.8508 C   0  0  0  0  0  0
   43.3598   12.6725   82.6353 C   0  0  0  0  0  0
   42.0948   12.3026   83.0811 C   0  0  0  0  0  0
   45.2798   14.3124   82.3595 C   0  0  0  0  0  0
   46.2943   13.2397   82.8289 C   0  0  0  0  0  0
   45.2807   14.3518   80.8142 C   0  0  0  0  0  0
   45.7683   15.6689   82.9254 C   0  0  0  0  0  0
   44.7009   16.7520   82.8290 C   0  0  0  0  0  0
   43.4378   16.4067   83.6568 C   0  0  0  0  0  0
   42.3226   17.3798   83.1984 C   0  0  0  0  0  0
   43.7109   16.6399   85.1605 C   0  0  0  0  0  0
   38.9954   15.0387   84.8426 C   0  0  0  0  0  0
   38.1488   15.9559   85.6449 C   0  0  0  0  0  0
   37.4231   15.5293   86.7736 C   0  0  0  0  0  0
   36.6320   16.4314   87.4918 C   0  0  0  0  0  0
   36.5451   17.7778   87.0981 C   0  0  0  0  0  0
   35.7070   18.7451   87.8482 C   0  0  0  0  0  0
   35.6272   19.9394   87.4548 O   0  0  0  0  0  0
   35.0082   18.3759   88.9971 O   0  0  0  0  0  0
   37.2477   18.1953   85.9552 C   0  0  0  0  0  0
   38.0384   17.2941   85.2375 C   0  0  0  0  0  0
   34.3776   19.0044   89.4776 H   0  0  0  0  0  0
  1  2  1  0  0  0
  2  3  2  0  0  0
  2  4  1  0  0  0
  4  5  2  0  0  0
  5  6  1  0  0  0
  6  7  2  0  0  0
  7  8  1  0  0  0
  8  9  2  0  0  0
  7 10  1  0  0  0
 10 11  1  0  0  0
 10 12  1  0  0  0
 10 13  1  0  0  0
 13 14  1  0  0  0
 14 15  1  0  0  0
 15 16  1  0  0  0
 15 17  1  0  0  0
  1 18  2  0  0  0
 18 19  1  0  0  0
 19 20  2  0  0  0
 20 21  1  0  0  0
 21 22  2  0  0  0
 22 23  1  0  0  0
 23 24  2  0  0  0
 23 25  1  0  0  0
 22 26  1  0  0  0
 26 27  2  0  0  0
  9  4  1  0  0  0
 27 19  1  0  0  0
 15  6  1  0  0  0
 25 28  1  0  0  0
M  END
>  <CHROM.0>
-159.66491258,-176.75828265,64.78175400,-57.66911275,-168.19591590,173.12658794

>  <CHROM.1>
-140.86241748,-7.88309072,3.45767160,-178.53674818,-175.16144928,40.73106643
15.52284739,84.62145797,2.67329760,0.42211504,0.23794937

>  <RI>
0

>  <Rbt.Current_Directory>
/extra/banzai2/j5wagner/CELPP/2016_10_17_rdock_implementation/normal_run/tutorialVideo/tutorial_rdock_implementation/full_week_run/4-docking/1fcz/SMCSS_2lbd_docking

>  <Rbt.Executable>
rbdock ($Id: //depot/dev/client3/rdock/2013.1/src/exe/rbdock.cxx#4 $)

>  <Rbt.Library>
libRbt.so (2013.1, Build901 2013/11/27)

>  <Rbt.Parameter_File>
/home/j5wagner/env_00/source/rDock/rDock_2013.1_src//data/scripts/dock.prm

>  <Rbt.Receptor>
/extra/banzai2/j5wagner/CELPP/2016_10_17_rdock_implementation/normal_run/tutorialVideo/tutorial_rdock_implementation/full_week_run/4-docking/1fcz/SMCSS_2lbd_tech_prep/rDockGridGenInput.prm

>  <SCORE>
-30.2444

>  <SCORE.INTER>
-21.2882

>  <SCORE.INTER.CONST>
1

>  <SCORE.INTER.POLAR>
-0.533007

>  <SCORE.INTER.REPUL>
0

>  <SCORE.INTER.ROT>
4

>  <SCORE.INTER.VDW>
-28.8759

>  <SCORE.INTER.norm>
-0.788451

>  <SCORE.INTRA>
-2.07717

>  <SCORE.INTRA.DIHEDRAL>
-5.73162

>  <SCORE.INTRA.DIHEDRAL.0>
10.7811

>  <SCORE.INTRA.POLAR>
0

>  <SCORE.INTRA.POLAR.0>
0

>  <SCORE.INTRA.REPUL>
0

>  <SCORE.INTRA.REPUL.0>
0

>  <SCORE.INTRA.VDW>
0.78864

>  <SCORE.INTRA.VDW.0>
-0.812999

>  <SCORE.INTRA.norm>
-0.0769323

>  <SCORE.RESTR>
0

>  <SCORE.RESTR.CAVITY>
0

>  <SCORE.RESTR.norm>
0

>  <SCORE.SYSTEM>
-6.87908

>  <SCORE.SYSTEM.CONST>
0

>  <SCORE.SYSTEM.DIHEDRAL>
1.66261

>  <SCORE.SYSTEM.POLAR>
-1.66025

>  <SCORE.SYSTEM.VDW>
-2.06552

>  <SCORE.SYSTEM.norm>
-0.254781

>  <SCORE.heavy>
27

>  <SCORE.norm>
-1.12016

$$$$

  rDOCK(R)          3D
libRbt.so/2013.1/901 2013/11/27
 28 30  0  0  0  0  0  0  0  0999 V2000
   40.1982   14.8157   85.7298 C   0  0  0  0  0  0
   41.2459   13.8447   85.3492 C   0  0  0  0  0  0
   41.7310   13.1120   86.2528 O   0  0  0  0  0  0
   41.7594   13.7092   83.9644 C   0  0  0  0  0  0
   43.1115   13.9494   83.6922 C   0  0  0  0  0  0
   43.6310   13.8630   82.3799 C   0  0  0  0  0  0
   42.7638   13.4389   81.3280 C   0  0  0  0  0  0
   41.3921   13.2652   81.6144 C   0  0  0  0  0  0
   40.8992   13.4006   82.9084 C   0  0  0  0  0  0
   43.2511   13.2478   79.8836 C   0  0  0  0  0  0
   42.7278   11.9111   79.3008 C   0  0  0  0  0  0
   42.7174   14.4093   79.0142 C   0  0  0  0  0  0
   44.7971   13.1949   79.8077 C   0  0  0  0  0  0
   45.4533   14.2865   80.6441 C   0  0  0  0  0  0
   45.1236   14.1493   82.1515 C   0  0  0  0  0  0
   45.5359   15.4834   82.8229 C   0  0  0  0  0  0
   45.9561   13.0043   82.7728 C   0  0  0  0  0  0
   39.1404   14.4826   86.4843 C   0  0  0  0  0  0
   38.0771   15.4364   86.8856 C   0  0  0  0  0  0
   37.9916   16.7427   86.3670 C   0  0  0  0  0  0
   36.9748   17.6073   86.7839 C   0  0  0  0  0  0
   36.0228   17.1890   87.7295 C   0  0  0  0  0  0
   34.9408   18.0964   88.1838 C   0  0  0  0  0  0
   34.8262   19.2400   87.6675 O   0  0  0  0  0  0
   34.0447   17.7273   89.1865 O   0  0  0  0  0  0
   36.1263   15.8948   88.2667 C   0  0  0  0  0  0
   37.1422   15.0306   87.8501 C   0  0  0  0  0  0
   33.4125   18.3859   89.6225 H   0  0  0  0  0  0
  1  2  1  0  0  0
  2  3  2  0  0  0
  2  4  1  0  0  0
  4  5  2  0  0  0
  5  6  1  0  0  0
  6  7  2  0  0  0
  7  8  1  0  0  0
  8  9  2  0  0  0
  7 10  1  0  0  0
 10 11  1  0  0  0
 10 12  1  0  0  0
 10 13  1  0  0  0
 13 14  1  0  0  0
 14 15  1  0  0  0
 15 16  1  0  0  0
 15 17  1  0  0  0
  1 18  2  0  0  0
 18 19  1  0  0  0
 19 20  2  0  0  0
 20 21  1  0  0  0
 21 22  2  0  0  0
 22 23  1  0  0  0
 23 24  2  0  0  0
 23 25  1  0  0  0
 22 26  1  0  0  0
 26 27  2  0  0  0
  9  4  1  0  0  0
 27 19  1  0  0  0
 15  6  1  0  0  0
 25 28  1  0  0  0
M  END
>  <CHROM.0>
-160.32342548,60.81349654,63.05817158,178.35821527,-176.55649410,170.90982478

>  <CHROM.1>
-47.86727429,118.73448829,8.41411582,3.65791596,168.69026156,40.63962013
14.86047942,84.26579274,-2.49236030,0.41777293,-1.57037588

>  <RI>
0

>  <Rbt.Current_Directory>
/extra/banzai2/j5wagner/CELPP/2016_10_17_rdock_implementation/normal_run/tutorialVideo/tutorial_rdock_implementation/full_week_run/4-docking/1fcz/SMCSS_2lbd_docking

>  <Rbt.Executable>
rbdock ($Id: //depot/dev/client3/rdock/2013.1/src/exe/rbdock.cxx#4 $)

>  <Rbt.Library>
libRbt.so (2013.1, Build901 2013/11/27)

>  <Rbt.Parameter_File>
/home/j5wagner/env_00/source/rDock/rDock_2013.1_src//data/scripts/dock.prm

>  <Rbt.Receptor>
/extra/banzai2/j5wagner/CELPP/2016_10_17_rdock_implementation/normal_run/tutorialVideo/tutorial_rdock_implementation/full_week_run/4-docking/1fcz/SMCSS_2lbd_tech_prep/rDockGridGenInput.prm

>  <SCORE>
-28.5763

>  <SCORE.INTER>
-24.4278

>  <SCORE.INTER.CONST>
1

>  <SCORE.INTER.POLAR>
-1.7564

>  <SCORE.INTER.REPUL>
0.00980462

>  <SCORE.INTER.ROT>
4

>  <SCORE.INTER.VDW>
-27.9051

>  <SCORE.INTER.norm>
-0.904734

>  <SCORE.INTRA>
3.09095

>  <SCORE.INTRA.DIHEDRAL>
6.10674

>  <SCORE.INTRA.DIHEDRAL.0>
10.7811

>  <SCORE.INTRA.POLAR>
0

>  <SCORE.INTRA.POLAR.0>
0

>  <SCORE.INTRA.REPUL>
0

>  <SCORE.INTRA.REPUL.0>
0

>  <SCORE.INTRA.VDW>
0.0375822

>  <SCORE.INTRA.VDW.0>
-0.812999

>  <SCORE.INTRA.norm>
0.11448

>  <SCORE.RESTR>
0

>  <SCORE.RESTR.CAVITY>
0

>  <SCORE.RESTR.norm>
0

>  <SCORE.SYSTEM>
-7.23945

>  <SCORE.SYSTEM.CONST>
0

>  <SCORE.SYSTEM.DIHEDRAL>
1.11622

>  <SCORE.SYSTEM.POLAR>
-1.65632

>  <SCORE.SYSTEM.VDW>
-2.16609

>  <SCORE.SYSTEM.norm>
-0.268128

>  <SCORE.heavy>
27

>  <SCORE.norm>
-1.05838

$$$$

  rDOCK(R)          3D
libRbt.so/2013.1/901 2013/11/27
 28 30  0  0  0  0  0  0  0  0999 V2000
   36.7871   17.3877   87.3600 C   0  0  0  0  0  0
   35.7079   17.7631   88.2978 C   0  0  0  0  0  0
   35.0820   16.8379   88.8818 O   0  0  0  0  0  0
   35.3208   19.1697   88.5653 C   0  0  0  0  0  0
   35.3613   19.6710   89.8717 C   0  0  0  0  0  0
   34.9679   20.9959   90.1708 C   0  0  0  0  0  0
   34.6015   21.8595   89.0945 C   0  0  0  0  0  0
   34.5062   21.3142   87.7956 C   0  0  0  0  0  0
   34.8569   19.9928   87.5369 C   0  0  0  0  0  0
   34.2266   23.3336   89.3107 C   0  0  0  0  0  0
   34.9408   24.2384   88.2756 C   0  0  0  0  0  0
   32.6989   23.4951   89.1384 C   0  0  0  0  0  0
   34.6581   23.8300   90.7129 C   0  0  0  0  0  0
   34.3042   22.8349   91.8111 C   0  0  0  0  0  0
   35.0282   21.4775   91.6290 C   0  0  0  0  0  0
   34.3270   20.4665   92.5706 C   0  0  0  0  0  0
   36.5087   21.6064   92.0553 C   0  0  0  0  0  0
   37.2194   16.1257   87.2196 C   0  0  0  0  0  0
   38.2964   15.7193   86.2834 C   0  0  0  0  0  0
   38.9533   16.6329   85.4370 C   0  0  0  0  0  0
   39.9569   16.1984   84.5655 C   0  0  0  0  0  0
   40.3250   14.8429   84.5170 C   0  0  0  0  0  0
   41.3851   14.3670   83.5950 C   0  0  0  0  0  0
   41.6082   13.1320   83.4833 O   0  0  0  0  0  0
   42.1632   15.2526   82.8500 O   0  0  0  0  0  0
   39.6490   13.9283   85.3421 C   0  0  0  0  0  0
   38.6462   14.3623   86.2132 C   0  0  0  0  0  0
   42.0633   16.2571   82.9187 H   0  0  0  0  0  0
  1  2  1  0  0  0
  2  3  2  0  0  0
  2  4  1  0  0  0
  4  5  2  0  0  0
  5  6  1  0  0  0
  6  7  2  0  0  0
  7  8  1  0  0  0
  8  9  2  0  0  0
  7 10  1  0  0  0
 10 11  1  0  0  0
 10 12  1  0  0  0
 10 13  1  0  0  0
 13 14  1  0  0  0
 14 15  1  0  0  0
 15 16  1  0  0  0
 15 17  1  0  0  0
  1 18  2  0  0  0
 18 19  1  0  0  0
 19 20  2  0  0  0
 20 21  1  0  0  0
 21 22  2  0  0  0
 22 23  1  0  0  0
 23 24  2  0  0  0
 23 25  1  0  0  0
 22 26  1  0  0  0
 26 27  2  0  0  0
  9  4  1  0  0  0
 27 19  1  0  0  0
 15  6  1  0  0  0
 25 28  1  0  0  0
M  END
>  <CHROM.0>
-161.98464918,62.81768425,-178.49147032,61.77178134,59.94831461,172.29036925

>  <CHROM.1>
-7.49224446,-122.40641494,-0.92504751,-173.43814555,1.74521131,36.77211352
18.77908072,87.86640204,0.37090404,-0.97425234,2.66796971

>  <RI>
0

>  <Rbt.Current_Directory>
/extra/banzai2/j5wagner/CELPP/2016_10_17_rdock_implementation/normal_run/tutorialVideo/tutorial_rdock_implementation/full_week_run/4-docking/1fcz/SMCSS_2lbd_docking

>  <Rbt.Executable>
rbdock ($Id: //depot/dev/client3/rdock/2013.1/src/exe/rbdock.cxx#4 $)

>  <Rbt.Library>
libRbt.so (2013.1, Build901 2013/11/27)

>  <Rbt.Parameter_File>
/home/j5wagner/env_00/source/rDock/rDock_2013.1_src//data/scripts/dock.prm

>  <Rbt.Receptor>
/extra/banzai2/j5wagner/CELPP/2016_10_17_rdock_implementation/normal_run/tutorialVideo/tutorial_rdock_implementation/full_week_run/4-docking/1fcz/SMCSS_2lbd_tech_prep/rDockGridGenInput.prm

>  <SCORE>
-6.21136

>  <SCORE.INTER>
0.570015

>  <SCORE.INTER.CONST>
1

>  <SCORE.INTER.POLAR>
0

>  <SCORE.INTER.REPUL>
0

>  <SCORE.INTER.ROT>
4

>  <SCORE.INTER.VDW>
-8.82999

>  <SCORE.INTER.norm>
0.0211117

>  <SCORE.INTRA>
-0.198179

>  <SCORE.INTRA.DIHEDRAL>
-0.930296

>  <SCORE.INTRA.DIHEDRAL.0>
10.7811

>  <SCORE.INTRA.POLAR>
0

>  <SCORE.INTRA.POLAR.0>
0

>  <SCORE.INTRA.REPUL>
0

>  <SCORE.INTRA.REPUL.0>
0

>  <SCORE.INTRA.VDW>
0.266969

>  <SCORE.INTRA.VDW.0>
-0.812999

>  <SCORE.INTRA.norm>
-0.00733995

>  <SCORE.RESTR>
0

>  <SCORE.RESTR.CAVITY>
0

>  <SCORE.RESTR.norm>
0

>  <SCORE.SYSTEM>
-6.58319

>  <SCORE.SYSTEM.CONST>
0

>  <SCORE.SYSTEM.DIHEDRAL>
0.843007

>  <SCORE.SYSTEM.POLAR>
-1.64651

>  <SCORE.SYSTEM.VDW>
-1.40657

>  <SCORE.SYSTEM.norm>
-0.243822

>  <SCORE.heavy>
27

>  <SCORE.norm>
-0.23005

$$$$
