
  rDOCK(R)          3D
libRbt.so/2013.1/901 2013/11/27
 25 26  0  0  0  0  0  0  0  0999 V2000
   -4.2715   -3.3777   13.7870 C   0  0  0  0  0  0
   -5.1795   -3.9837   12.8980 O   0  0  0  0  0  0
   -3.1337   -2.6974   13.0776 C   0  0  0  0  0  0
   -2.8185   -1.5048   13.9835 C   0  0  0  0  0  0
   -1.5159   -1.6963   14.6623 N   0  0  0  0  0  0
   -1.4761   -2.0079   15.9980 C   0  0  0  0  0  0
   -0.2625   -2.1703   16.6607 C   0  0  0  0  0  0
    0.9188   -2.0199   15.9374 C   0  0  0  0  0  0
    2.0738   -2.1546   16.5077 N   0  0  0  0  0  0
    0.8559   -1.7363   14.6147 N   0  0  0  0  0  0
   -0.3298   -1.5834   13.9680 C   0  0  0  0  0  0
   -0.2912   -1.3229   12.5953 O   0  0  0  0  0  0
   -3.8665   -1.3368   14.9231 O   0  0  0  0  0  0
   -4.8946   -2.2394   14.5883 C   0  0  0  0  0  0
   -5.5832   -2.7355   15.8677 C   0  0  0  0  0  0
   -6.9237   -3.0981   15.6035 O   0  0  0  0  0  0
   -7.9101   -1.7046   15.5430 P   0  0  0  0  0  0
   -7.0779   -0.5035   15.1511 O   0  0  0  0  0  0
   -9.1791   -1.9099   14.4390 O   0  0  0  0  0  0
   -8.5647   -1.4368   17.0793 O   0  0  0  0  0  0
   -5.7440   -3.2731   12.4953 H   0  0  0  0  0  0
    2.1749   -2.3762   17.5244 H   0  0  0  0  0  0
   -0.9856   -1.6465   11.9365 H   0  0  0  0  0  0
   -9.8198   -1.1818   14.6400 H   0  0  0  0  0  0
   -7.8788   -0.9030   17.5542 H   0  0  0  0  0  0
  1  2  1  0  0  0
  1  3  1  0  0  0
  3  4  1  0  0  0
  4  5  1  0  0  0
  5  6  1  0  0  0
  6  7  2  0  0  0
  7  8  1  0  0  0
  8  9  2  0  0  0
  8 10  1  0  0  0
 10 11  2  0  0  0
 11 12  1  0  0  0
  4 13  1  0  0  0
 13 14  1  0  0  0
 14 15  1  0  0  0
 15 16  1  0  0  0
 16 17  1  0  0  0
 17 18  2  0  0  0
 17 19  1  0  0  0
 17 20  1  0  0  0
 14  1  1  0  0  0
 11  5  1  0  0  0
  2 21  1  0  0  0
  9 22  1  0  0  0
 12 23  1  0  0  0
 19 24  1  0  0  0
 20 25  1  0  0  0
M  END
>  <CHROM.0>
46.57507883,-68.94847713,179.87436359,-53.74808235,13.97557374,-1.36820851
-68.09319395,176.72372280,-10.65392623,-177.60259579

>  <CHROM.1>
-76.38782320,-106.42655284,-32.73156720,-87.61280617,-79.79301347,25.97137206
165.37095692,86.35770175,-3.90231701,-2.03310345,14.91628688,3.09847485,0.01275760
1.34340552

>  <RI>
1.20554e+07

>  <Rbt.Current_Directory>
/extra/banzai2/j5wagner/CELPP/2016_10_17_rdock_implementation/normal_run/tutorialVideo/tutorial_rdock_implementation/full_week_run/4-docking/5wrn/hiResHolo_1ypv_docking

>  <Rbt.Executable>
rbdock ($Id: //depot/dev/client3/rdock/2013.1/src/exe/rbdock.cxx#4 $)

>  <Rbt.Library>
libRbt.so (2013.1, Build901 2013/11/27)

>  <Rbt.Parameter_File>
/home/j5wagner/env_00/source/rDock/rDock_2013.1_src//data/scripts/dock.prm

>  <Rbt.Receptor>
/extra/banzai2/j5wagner/CELPP/2016_10_17_rdock_implementation/normal_run/tutorialVideo/tutorial_rdock_implementation/full_week_run/4-docking/5wrn/hiResHolo_1ypv_tech_prep/rDockGridGenInput.prm

>  <SCORE>
-33.1812

>  <SCORE.INTER>
-28.3856

>  <SCORE.INTER.CONST>
1

>  <SCORE.INTER.POLAR>
-4.97015

>  <SCORE.INTER.REPUL>
0.0011263

>  <SCORE.INTER.ROT>
4

>  <SCORE.INTER.VDW>
-20.8928

>  <SCORE.INTER.norm>
-1.41928

>  <SCORE.INTRA>
2.37273

>  <SCORE.INTRA.DIHEDRAL>
2.93764

>  <SCORE.INTRA.DIHEDRAL.0>
8.98184

>  <SCORE.INTRA.POLAR>
0

>  <SCORE.INTRA.POLAR.0>
0

>  <SCORE.INTRA.REPUL>
0

>  <SCORE.INTRA.REPUL.0>
0

>  <SCORE.INTRA.VDW>
0.903912

>  <SCORE.INTRA.VDW.0>
-1.60828

>  <SCORE.INTRA.norm>
0.118637

>  <SCORE.RESTR>
0.0177041

>  <SCORE.RESTR.CAVITY>
0.0177041

>  <SCORE.RESTR.norm>
0.000885204

>  <SCORE.SYSTEM>
-7.18605

>  <SCORE.SYSTEM.CONST>
0

>  <SCORE.SYSTEM.DIHEDRAL>
1.75881

>  <SCORE.SYSTEM.POLAR>
-2.08697

>  <SCORE.SYSTEM.REPUL>
0.0708298

>  <SCORE.SYSTEM.VDW>
-1.32392

>  <SCORE.SYSTEM.norm>
-0.359302

>  <SCORE.heavy>
20

>  <SCORE.norm>
-1.65906

$$$$

  rDOCK(R)          3D
libRbt.so/2013.1/901 2013/11/27
 25 26  0  0  0  0  0  0  0  0999 V2000
   -4.2056   -3.4559   13.8460 C   0  0  0  0  0  0
   -5.1131   -4.0501   12.9487 O   0  0  0  0  0  0
   -3.0193   -2.8473   13.1511 C   0  0  0  0  0  0
   -2.6787   -1.6415   14.0298 C   0  0  0  0  0  0
   -1.4057   -1.8670   14.7531 N   0  0  0  0  0  0
   -1.4221   -2.2375   16.0741 C   0  0  0  0  0  0
   -0.2374   -2.4329   16.7789 C   0  0  0  0  0  0
    0.9733   -2.2545   16.1127 C   0  0  0  0  0  0
    2.1033   -2.4181   16.7240 N   0  0  0  0  0  0
    0.9660   -1.9124   14.8023 N   0  0  0  0  0  0
   -0.1915   -1.7274   14.1144 C   0  0  0  0  0  0
   -0.0954   -1.4064   12.7574 O   0  0  0  0  0  0
   -3.7450   -1.3996   14.9320 O   0  0  0  0  0  0
   -4.8014   -2.2675   14.5936 C   0  0  0  0  0  0
   -5.5475   -2.6935   15.8660 C   0  0  0  0  0  0
   -6.8773   -3.0650   15.5630 O   0  0  0  0  0  0
   -7.8761   -1.6806   15.4995 P   0  0  0  0  0  0
   -7.0657   -0.4832   15.0543 O   0  0  0  0  0  0
   -9.1761   -1.9214   14.4395 O   0  0  0  0  0  0
   -8.4863   -1.3810   17.0481 O   0  0  0  0  0  0
   -5.6752   -3.3339   12.5525 H   0  0  0  0  0  0
    2.1617   -2.6848   17.7331 H   0  0  0  0  0  0
   -0.8029   -0.9014   12.2421 H   0  0  0  0  0  0
   -9.8481   -1.2389   14.6919 H   0  0  0  0  0  0
   -7.7764   -0.8589   17.5003 H   0  0  0  0  0  0
  1  2  1  0  0  0
  1  3  1  0  0  0
  3  4  1  0  0  0
  4  5  1  0  0  0
  5  6  1  0  0  0
  6  7  2  0  0  0
  7  8  1  0  0  0
  8  9  2  0  0  0
  8 10  1  0  0  0
 10 11  2  0  0  0
 11 12  1  0  0  0
  4 13  1  0  0  0
 13 14  1  0  0  0
 14 15  1  0  0  0
 15 16  1  0  0  0
 16 17  1  0  0  0
 17 18  2  0  0  0
 17 19  1  0  0  0
 17 20  1  0  0  0
 14  1  1  0  0  0
 11  5  1  0  0  0
  2 21  1  0  0  0
  9 22  1  0  0  0
 12 23  1  0  0  0
 19 24  1  0  0  0
 20 25  1  0  0  0
M  END
>  <CHROM.0>
42.41959653,-68.27956951,65.52961419,69.91651813,178.42064446,-174.41322889
66.01261837,61.14699899,-175.08451828,173.91494343

>  <CHROM.1>
-80.08030380,-101.48387980,25.94674470,-84.94234346,-83.91922582,29.84721314
160.91305152,84.37198022,-3.82879847,-2.11419292,14.96789580,3.11561205,-0.01872642
1.36005170

>  <RI>
1.20554e+07

>  <Rbt.Current_Directory>
/extra/banzai2/j5wagner/CELPP/2016_10_17_rdock_implementation/normal_run/tutorialVideo/tutorial_rdock_implementation/full_week_run/4-docking/5wrn/hiResHolo_1ypv_docking

>  <Rbt.Executable>
rbdock ($Id: //depot/dev/client3/rdock/2013.1/src/exe/rbdock.cxx#4 $)

>  <Rbt.Library>
libRbt.so (2013.1, Build901 2013/11/27)

>  <Rbt.Parameter_File>
/home/j5wagner/env_00/source/rDock/rDock_2013.1_src//data/scripts/dock.prm

>  <Rbt.Receptor>
/extra/banzai2/j5wagner/CELPP/2016_10_17_rdock_implementation/normal_run/tutorialVideo/tutorial_rdock_implementation/full_week_run/4-docking/5wrn/hiResHolo_1ypv_tech_prep/rDockGridGenInput.prm

>  <SCORE>
-33.0707

>  <SCORE.INTER>
-29.111

>  <SCORE.INTER.CONST>
1

>  <SCORE.INTER.POLAR>
-5.3431

>  <SCORE.INTER.REPUL>
0

>  <SCORE.INTER.ROT>
4

>  <SCORE.INTER.VDW>
-20.3444

>  <SCORE.INTER.norm>
-1.45555

>  <SCORE.INTRA>
2.12236

>  <SCORE.INTRA.DIHEDRAL>
3.17509

>  <SCORE.INTRA.DIHEDRAL.0>
8.98184

>  <SCORE.INTRA.POLAR>
0

>  <SCORE.INTRA.POLAR.0>
0

>  <SCORE.INTRA.REPUL>
0

>  <SCORE.INTRA.REPUL.0>
0

>  <SCORE.INTRA.VDW>
0.534812

>  <SCORE.INTRA.VDW.0>
-1.60828

>  <SCORE.INTRA.norm>
0.106118

>  <SCORE.RESTR>
0.0297171

>  <SCORE.RESTR.CAVITY>
0.0297171

>  <SCORE.RESTR.norm>
0.00148585

>  <SCORE.SYSTEM>
-6.11176

>  <SCORE.SYSTEM.CONST>
0

>  <SCORE.SYSTEM.DIHEDRAL>
1.77299

>  <SCORE.SYSTEM.POLAR>
-2.55035

>  <SCORE.SYSTEM.REPUL>
0.545007

>  <SCORE.SYSTEM.VDW>
-1.05208

>  <SCORE.SYSTEM.norm>
-0.305588

>  <SCORE.heavy>
20

>  <SCORE.norm>
-1.65353

$$$$

  rDOCK(R)          3D
libRbt.so/2013.1/901 2013/11/27
 25 26  0  0  0  0  0  0  0  0999 V2000
   -4.5853   -2.8670   14.6551 C   0  0  0  0  0  0
   -5.6553   -3.7819   14.6449 O   0  0  0  0  0  0
   -3.4764   -3.2630   13.7202 C   0  0  0  0  0  0
   -2.9260   -1.9183   13.2396 C   0  0  0  0  0  0
   -1.5783   -1.6752   13.8043 N   0  0  0  0  0  0
   -1.3992   -1.6395   15.1642 C   0  0  0  0  0  0
   -0.1455   -1.3905   15.7162 C   0  0  0  0  0  0
    0.9334   -1.1866   14.8584 C   0  0  0  0  0  0
    2.1189   -0.9455   15.3206 N   0  0  0  0  0  0
    0.7385   -1.2503   13.5197 N   0  0  0  0  0  0
   -0.4850   -1.4989   12.9826 C   0  0  0  0  0  0
   -0.5787   -1.5763   11.5901 O   0  0  0  0  0  0
   -3.8268   -0.8846   13.5994 O   0  0  0  0  0  0
   -4.9794   -1.4862   14.1410 C   0  0  0  0  0  0
   -5.5555   -0.5937   15.2494 C   0  0  0  0  0  0
   -6.0659   -1.3801   16.3073 O   0  0  0  0  0  0
   -7.7138   -1.7381   16.0336 P   0  0  0  0  0  0
   -8.5495   -1.2177   17.1823 O   0  0  0  0  0  0
   -8.2472   -1.0537   14.5782 O   0  0  0  0  0  0
   -7.8959   -3.4170   15.9434 O   0  0  0  0  0  0
   -6.2872   -3.5319   15.3688 H   0  0  0  0  0  0
    2.3209   -0.8894   16.3448 H   0  0  0  0  0  0
   -1.3913   -1.9146   11.0939 H   0  0  0  0  0  0
   -7.9455   -1.6778   13.8707 H   0  0  0  0  0  0
   -8.6197   -3.6254   16.5865 H   0  0  0  0  0  0
  1  2  1  0  0  0
  1  3  1  0  0  0
  3  4  1  0  0  0
  4  5  1  0  0  0
  5  6  1  0  0  0
  6  7  2  0  0  0
  7  8  1  0  0  0
  8  9  2  0  0  0
  8 10  1  0  0  0
 10 11  2  0  0  0
 11 12  1  0  0  0
  4 13  1  0  0  0
 13 14  1  0  0  0
 14 15  1  0  0  0
 15 16  1  0  0  0
 16 17  1  0  0  0
 17 18  2  0  0  0
 17 19  1  0  0  0
 17 20  1  0  0  0
 14  1  1  0  0  0
 11  5  1  0  0  0
  2 21  1  0  0  0
  9 22  1  0  0  0
 12 23  1  0  0  0
 19 24  1  0  0  0
 20 25  1  0  0  0
M  END
>  <CHROM.0>
176.01777408,-67.67694585,72.74046074,-48.71357732,20.81942610,5.91581991
69.35857782,58.50331604,173.86990905,171.15965119

>  <CHROM.1>
172.18085017,-58.97207886,-10.83377885,-23.05812695,-90.19020993,-121.34912827
80.98500999,127.97286830,-3.90698649,-1.75848313,14.71122616,2.93568443,0.12824783
1.29625354

>  <RI>
1.20554e+07

>  <Rbt.Current_Directory>
/extra/banzai2/j5wagner/CELPP/2016_10_17_rdock_implementation/normal_run/tutorialVideo/tutorial_rdock_implementation/full_week_run/4-docking/5wrn/hiResHolo_1ypv_docking

>  <Rbt.Executable>
rbdock ($Id: //depot/dev/client3/rdock/2013.1/src/exe/rbdock.cxx#4 $)

>  <Rbt.Library>
libRbt.so (2013.1, Build901 2013/11/27)

>  <Rbt.Parameter_File>
/home/j5wagner/env_00/source/rDock/rDock_2013.1_src//data/scripts/dock.prm

>  <Rbt.Receptor>
/extra/banzai2/j5wagner/CELPP/2016_10_17_rdock_implementation/normal_run/tutorialVideo/tutorial_rdock_implementation/full_week_run/4-docking/5wrn/hiResHolo_1ypv_tech_prep/rDockGridGenInput.prm

>  <SCORE>
-31.4024

>  <SCORE.INTER>
-26.5114

>  <SCORE.INTER.CONST>
1

>  <SCORE.INTER.POLAR>
-5.76897

>  <SCORE.INTER.REPUL>
0

>  <SCORE.INTER.ROT>
4

>  <SCORE.INTER.VDW>
-16.2969

>  <SCORE.INTER.norm>
-1.32557

>  <SCORE.INTRA>
1.21576

>  <SCORE.INTRA.DIHEDRAL>
6.5383

>  <SCORE.INTRA.DIHEDRAL.0>
8.98184

>  <SCORE.INTRA.POLAR>
-0.982179

>  <SCORE.INTRA.POLAR.0>
0

>  <SCORE.INTRA.REPUL>
0

>  <SCORE.INTRA.REPUL.0>
0

>  <SCORE.INTRA.VDW>
1.28601

>  <SCORE.INTRA.VDW.0>
-1.60828

>  <SCORE.INTRA.norm>
0.0607879

>  <SCORE.RESTR>
0.534021

>  <SCORE.RESTR.CAVITY>
0.534021

>  <SCORE.RESTR.norm>
0.0267011

>  <SCORE.SYSTEM>
-6.6408

>  <SCORE.SYSTEM.CONST>
0

>  <SCORE.SYSTEM.DIHEDRAL>
2.70607

>  <SCORE.SYSTEM.POLAR>
-2.68055

>  <SCORE.SYSTEM.REPUL>
0.52967

>  <SCORE.SYSTEM.VDW>
-1.52833

>  <SCORE.SYSTEM.norm>
-0.33204

>  <SCORE.heavy>
20

>  <SCORE.norm>
-1.57012

$$$$

  rDOCK(R)          3D
libRbt.so/2013.1/901 2013/11/27
 25 26  0  0  0  0  0  0  0  0999 V2000
   -4.3075   -3.7288   13.2786 C   0  0  0  0  0  0
   -5.2386   -4.3864   12.4525 O   0  0  0  0  0  0
   -3.2614   -2.9862   12.4947 C   0  0  0  0  0  0
   -2.9528   -1.7765   13.3798 C   0  0  0  0  0  0
   -1.5980   -1.8930   13.9673 N   0  0  0  0  0  0
   -1.4494   -2.1566   15.3056 C   0  0  0  0  0  0
   -0.1857   -2.2482   15.8826 C   0  0  0  0  0  0
    0.9334   -2.0763   15.0705 C   0  0  0  0  0  0
    2.1309   -2.1458   15.5588 N   0  0  0  0  0  0
    0.7639   -1.8411   13.7476 N   0  0  0  0  0  0
   -0.4705   -1.7575   13.1849 C   0  0  0  0  0  0
   -0.5414   -1.5430   11.8056 O   0  0  0  0  0  0
   -3.9417   -1.6668   14.3895 O   0  0  0  0  0  0
   -4.9376   -2.6266   14.1237 C   0  0  0  0  0  0
   -5.5077   -3.1592   15.4460 C   0  0  0  0  0  0
   -6.9012   -3.3706   15.3385 O   0  0  0  0  0  0
   -7.7331   -1.8823   15.4458 P   0  0  0  0  0  0
   -6.8523   -0.7641   14.9334 O   0  0  0  0  0  0
   -9.1755   -1.9309   14.5579 O   0  0  0  0  0  0
   -8.1040   -1.5845   17.0687 O   0  0  0  0  0  0
   -4.7522   -5.0574   11.9056 H   0  0  0  0  0  0
    2.3140   -2.3281   16.5718 H   0  0  0  0  0  0
   -1.3030   -1.8577   11.2207 H   0  0  0  0  0  0
   -9.6397   -1.0815   14.7681 H   0  0  0  0  0  0
   -8.6899   -0.7862   17.0493 H   0  0  0  0  0  0
  1  2  1  0  0  0
  1  3  1  0  0  0
  3  4  1  0  0  0
  4  5  1  0  0  0
  5  6  1  0  0  0
  6  7  2  0  0  0
  7  8  1  0  0  0
  8  9  2  0  0  0
  8 10  1  0  0  0
 10 11  2  0  0  0
 11 12  1  0  0  0
  4 13  1  0  0  0
 13 14  1  0  0  0
 14 15  1  0  0  0
 15 16  1  0  0  0
 16 17  1  0  0  0
 17 18  2  0  0  0
 17 19  1  0  0  0
 17 20  1  0  0  0
 14  1  1  0  0  0
 11  5  1  0  0  0
  2 21  1  0  0  0
  9 22  1  0  0  0
 12 23  1  0  0  0
 19 24  1  0  0  0
 20 25  1  0  0  0
M  END
>  <CHROM.0>
167.57840648,-52.29894712,179.00568903,-47.97656782,12.12258239,8.31000656
-65.93706286,-177.94183781,-168.78412122,179.53535237

>  <CHROM.1>
61.68810269,-108.57111979,-27.97061576,-98.17984936,-77.58272732,28.53399913
173.07100291,-172.19128120,-3.88411266,-2.25017645,14.43220808,3.01550839
0.05613145,1.24367865

>  <RI>
1.20554e+07

>  <Rbt.Current_Directory>
/extra/banzai2/j5wagner/CELPP/2016_10_17_rdock_implementation/normal_run/tutorialVideo/tutorial_rdock_implementation/full_week_run/4-docking/5wrn/hiResHolo_1ypv_docking

>  <Rbt.Executable>
rbdock ($Id: //depot/dev/client3/rdock/2013.1/src/exe/rbdock.cxx#4 $)

>  <Rbt.Library>
libRbt.so (2013.1, Build901 2013/11/27)

>  <Rbt.Parameter_File>
/home/j5wagner/env_00/source/rDock/rDock_2013.1_src//data/scripts/dock.prm

>  <Rbt.Receptor>
/extra/banzai2/j5wagner/CELPP/2016_10_17_rdock_implementation/normal_run/tutorialVideo/tutorial_rdock_implementation/full_week_run/4-docking/5wrn/hiResHolo_1ypv_tech_prep/rDockGridGenInput.prm

>  <SCORE>
-30.5274

>  <SCORE.INTER>
-24.156

>  <SCORE.INTER.CONST>
1

>  <SCORE.INTER.POLAR>
-4.35666

>  <SCORE.INTER.REPUL>
0

>  <SCORE.INTER.ROT>
4

>  <SCORE.INTER.VDW>
-18.7434

>  <SCORE.INTER.norm>
-1.2078

>  <SCORE.INTRA>
1.65689

>  <SCORE.INTRA.DIHEDRAL>
1.16181

>  <SCORE.INTRA.DIHEDRAL.0>
8.98184

>  <SCORE.INTRA.POLAR>
0

>  <SCORE.INTRA.POLAR.0>
0

>  <SCORE.INTRA.REPUL>
0

>  <SCORE.INTRA.REPUL.0>
0

>  <SCORE.INTRA.VDW>
1.07599

>  <SCORE.INTRA.VDW.0>
-1.60828

>  <SCORE.INTRA.norm>
0.0828446

>  <SCORE.RESTR>
0.0275313

>  <SCORE.RESTR.CAVITY>
0.0275313

>  <SCORE.RESTR.norm>
0.00137656

>  <SCORE.SYSTEM>
-8.0558

>  <SCORE.SYSTEM.CONST>
0

>  <SCORE.SYSTEM.DIHEDRAL>
1.72453

>  <SCORE.SYSTEM.POLAR>
-2.2411

>  <SCORE.SYSTEM.REPUL>
0.0576587

>  <SCORE.SYSTEM.VDW>
-1.58662

>  <SCORE.SYSTEM.norm>
-0.40279

>  <SCORE.heavy>
20

>  <SCORE.norm>
-1.52637

$$$$

  rDOCK(R)          3D
libRbt.so/2013.1/901 2013/11/27
 25 26  0  0  0  0  0  0  0  0999 V2000
   -3.2330   -3.6078   12.6440 C   0  0  0  0  0  0
   -3.8868   -4.2197   11.5577 O   0  0  0  0  0  0
   -1.8925   -3.0404   12.2676 C   0  0  0  0  0  0
   -1.7669   -1.8099   13.1688 C   0  0  0  0  0  0
   -0.7337   -2.0284   14.2076 N   0  0  0  0  0  0
   -0.9948   -2.8504   15.2747 C   0  0  0  0  0  0
   -0.0463   -3.0521   16.2737 C   0  0  0  0  0  0
    1.1848   -2.4085   16.1655 C   0  0  0  0  0  0
    2.0991   -2.5579   17.0705 N   0  0  0  0  0  0
    1.4302   -1.6209   15.0915 N   0  0  0  0  0  0
    0.5050   -1.4294   14.1144 C   0  0  0  0  0  0
    0.8639   -0.6237   13.0301 O   0  0  0  0  0  0
   -3.0267   -1.5219   13.7514 O   0  0  0  0  0  0
   -3.9768   -2.3859   13.1731 C   0  0  0  0  0  0
   -5.0400   -2.7570   14.2167 C   0  0  0  0  0  0
   -5.8052   -1.6232   14.5732 O   0  0  0  0  0  0
   -7.0731   -2.0749   15.6253 P   0  0  0  0  0  0
   -6.5642   -3.0708   16.6440 O   0  0  0  0  0  0
   -7.7139   -0.7201   16.4160 O   0  0  0  0  0  0
   -8.2988   -2.8031   14.7156 O   0  0  0  0  0  0
   -4.7191   -4.6448   11.8930 H   0  0  0  0  0  0
    1.9593   -3.1570   17.9157 H   0  0  0  0  0  0
    0.2268   -0.0064   12.5463 H   0  0  0  0  0  0
   -8.5745   -0.5359   15.9615 H   0  0  0  0  0  0
   -8.1748   -2.4487   13.7992 H   0  0  0  0  0  0
  1  2  1  0  0  0
  1  3  1  0  0  0
  3  4  1  0  0  0
  4  5  1  0  0  0
  5  6  1  0  0  0
  6  7  2  0  0  0
  7  8  1  0  0  0
  8  9  2  0  0  0
  8 10  1  0  0  0
 10 11  2  0  0  0
 11 12  1  0  0  0
  4 13  1  0  0  0
 13 14  1  0  0  0
 14 15  1  0  0  0
 15 16  1  0  0  0
 16 17  1  0  0  0
 17 18  2  0  0  0
 17 19  1  0  0  0
 17 20  1  0  0  0
 14  1  1  0  0  0
 11  5  1  0  0  0
  2 21  1  0  0  0
  9 22  1  0  0  0
 12 23  1  0  0  0
 19 24  1  0  0  0
 20 25  1  0  0  0
M  END
>  <CHROM.0>
-69.44295826,-48.19337328,-65.90305608,-49.24949320,-171.18155803,169.71131265
65.44428736,-179.87373541,171.27260554,-175.27482431

>  <CHROM.1>
174.71291708,-74.57794955,35.70441471,-173.54586689,174.88394446,41.89374307
104.07836412,-23.81286514,-3.11724321,-2.28273613,14.55260111,3.09954586
0.03050329,1.38522541

>  <RI>
1.20554e+07

>  <Rbt.Current_Directory>
/extra/banzai2/j5wagner/CELPP/2016_10_17_rdock_implementation/normal_run/tutorialVideo/tutorial_rdock_implementation/full_week_run/4-docking/5wrn/hiResHolo_1ypv_docking

>  <Rbt.Executable>
rbdock ($Id: //depot/dev/client3/rdock/2013.1/src/exe/rbdock.cxx#4 $)

>  <Rbt.Library>
libRbt.so (2013.1, Build901 2013/11/27)

>  <Rbt.Parameter_File>
/home/j5wagner/env_00/source/rDock/rDock_2013.1_src//data/scripts/dock.prm

>  <Rbt.Receptor>
/extra/banzai2/j5wagner/CELPP/2016_10_17_rdock_implementation/normal_run/tutorialVideo/tutorial_rdock_implementation/full_week_run/4-docking/5wrn/hiResHolo_1ypv_tech_prep/rDockGridGenInput.prm

>  <SCORE>
-28.4414

>  <SCORE.INTER>
-21.3047

>  <SCORE.INTER.CONST>
1

>  <SCORE.INTER.POLAR>
-4.79004

>  <SCORE.INTER.REPUL>
0

>  <SCORE.INTER.ROT>
4

>  <SCORE.INTER.VDW>
-14.4186

>  <SCORE.INTER.norm>
-1.06523

>  <SCORE.INTRA>
-0.170087

>  <SCORE.INTRA.DIHEDRAL>
-0.35645

>  <SCORE.INTRA.DIHEDRAL.0>
8.98184

>  <SCORE.INTRA.POLAR>
0

>  <SCORE.INTRA.POLAR.0>
0

>  <SCORE.INTRA.REPUL>
0

>  <SCORE.INTRA.REPUL.0>
0

>  <SCORE.INTRA.VDW>
0.00813772

>  <SCORE.INTRA.VDW.0>
-1.60828

>  <SCORE.INTRA.norm>
-0.00850437

>  <SCORE.RESTR>
0.0136849

>  <SCORE.RESTR.CAVITY>
0.0136849

>  <SCORE.RESTR.norm>
0.000684243

>  <SCORE.SYSTEM>
-6.98031

>  <SCORE.SYSTEM.CONST>
0

>  <SCORE.SYSTEM.DIHEDRAL>
1.89645

>  <SCORE.SYSTEM.POLAR>
-2.25092

>  <SCORE.SYSTEM.REPUL>
0.0728464

>  <SCORE.SYSTEM.VDW>
-0.639636

>  <SCORE.SYSTEM.norm>
-0.349015

>  <SCORE.heavy>
20

>  <SCORE.norm>
-1.42207

$$$$

  rDOCK(R)          3D
libRbt.so/2013.1/901 2013/11/27
 25 26  0  0  0  0  0  0  0  0999 V2000
   -4.2566   -3.3960   13.5736 C   0  0  0  0  0  0
   -5.1660   -3.8871   12.6177 O   0  0  0  0  0  0
   -3.0364   -2.7791   12.9481 C   0  0  0  0  0  0
   -2.6721   -1.6568   13.9227 C   0  0  0  0  0  0
   -1.4223   -1.9824   14.6482 N   0  0  0  0  0  0
   -1.4793   -2.4975   15.9187 C   0  0  0  0  0  0
   -0.3168   -2.7897   16.6270 C   0  0  0  0  0  0
    0.9137   -2.5580   16.0159 C   0  0  0  0  0  0
    2.0245   -2.8072   16.6334 N   0  0  0  0  0  0
    0.9464   -2.0720   14.7522 N   0  0  0  0  0  0
   -0.1895   -1.7924   14.0601 C   0  0  0  0  0  0
   -0.0524   -1.3239   12.7504 O   0  0  0  0  0  0
   -3.7471   -1.4464   14.8224 O   0  0  0  0  0  0
   -4.8258   -2.2475   14.4001 C   0  0  0  0  0  0
   -5.6114   -2.7423   15.6229 C   0  0  0  0  0  0
   -6.9888   -2.8446   15.3222 O   0  0  0  0  0  0
   -7.7440   -1.3218   15.4933 P   0  0  0  0  0  0
   -8.2734   -1.1671   16.9019 O   0  0  0  0  0  0
   -6.6597   -0.0670   15.1455 O   0  0  0  0  0  0
   -9.0404   -1.2351   14.4107 O   0  0  0  0  0  0
   -4.7319   -4.6337   12.1279 H   0  0  0  0  0  0
    2.0520   -3.1856   17.6076 H   0  0  0  0  0  0
   -0.7317   -0.7401   12.2825 H   0  0  0  0  0  0
   -5.9912   -0.0901   15.8760 H   0  0  0  0  0  0
   -9.6749   -1.9281   14.7238 H   0  0  0  0  0  0
  1  2  1  0  0  0
  1  3  1  0  0  0
  3  4  1  0  0  0
  4  5  1  0  0  0
  5  6  1  0  0  0
  6  7  2  0  0  0
  7  8  1  0  0  0
  8  9  2  0  0  0
  8 10  1  0  0  0
 10 11  2  0  0  0
 11 12  1  0  0  0
  4 13  1  0  0  0
 13 14  1  0  0  0
 14 15  1  0  0  0
 15 16  1  0  0  0
 16 17  1  0  0  0
 17 18  2  0  0  0
 17 19  1  0  0  0
 17 20  1  0  0  0
 14  1  1  0  0  0
 11  5  1  0  0  0
  2 21  1  0  0  0
  9 22  1  0  0  0
 12 23  1  0  0  0
 19 24  1  0  0  0
 20 25  1  0  0  0
M  END
>  <CHROM.0>
158.79748590,-57.18359367,68.11848488,72.33557663,2.59251014,-168.39048859
69.17926755,59.96029570,-165.13999858,-176.78700099

>  <CHROM.1>
64.82517464,-99.11910177,27.01979572,-93.97739924,-83.27323401,-91.20159513
-67.89852148,64.82181167,-3.79310978,-2.05994965,14.84537086,3.10199689,-0.08305695
1.35193348

>  <RI>
1.20554e+07

>  <Rbt.Current_Directory>
/extra/banzai2/j5wagner/CELPP/2016_10_17_rdock_implementation/normal_run/tutorialVideo/tutorial_rdock_implementation/full_week_run/4-docking/5wrn/hiResHolo_1ypv_docking

>  <Rbt.Executable>
rbdock ($Id: //depot/dev/client3/rdock/2013.1/src/exe/rbdock.cxx#4 $)

>  <Rbt.Library>
libRbt.so (2013.1, Build901 2013/11/27)

>  <Rbt.Parameter_File>
/home/j5wagner/env_00/source/rDock/rDock_2013.1_src//data/scripts/dock.prm

>  <Rbt.Receptor>
/extra/banzai2/j5wagner/CELPP/2016_10_17_rdock_implementation/normal_run/tutorialVideo/tutorial_rdock_implementation/full_week_run/4-docking/5wrn/hiResHolo_1ypv_tech_prep/rDockGridGenInput.prm

>  <SCORE>
-27.0068

>  <SCORE.INTER>
-21.2834

>  <SCORE.INTER.CONST>
1

>  <SCORE.INTER.POLAR>
-3.08221

>  <SCORE.INTER.REPUL>
0

>  <SCORE.INTER.ROT>
4

>  <SCORE.INTER.VDW>
-20.2039

>  <SCORE.INTER.norm>
-1.06417

>  <SCORE.INTRA>
0.743812

>  <SCORE.INTRA.DIHEDRAL>
1.50523

>  <SCORE.INTRA.DIHEDRAL.0>
8.98184

>  <SCORE.INTRA.POLAR>
0

>  <SCORE.INTRA.POLAR.0>
0

>  <SCORE.INTRA.REPUL>
0

>  <SCORE.INTRA.REPUL.0>
0

>  <SCORE.INTRA.VDW>
-0.00880453

>  <SCORE.INTRA.VDW.0>
-1.60828

>  <SCORE.INTRA.norm>
0.0371906

>  <SCORE.RESTR>
0

>  <SCORE.RESTR.CAVITY>
0

>  <SCORE.RESTR.norm>
0

>  <SCORE.SYSTEM>
-6.46721

>  <SCORE.SYSTEM.CONST>
0

>  <SCORE.SYSTEM.DIHEDRAL>
2.6851

>  <SCORE.SYSTEM.POLAR>
-2.6998

>  <SCORE.SYSTEM.REPUL>
0.526673

>  <SCORE.SYSTEM.VDW>
-1.26382

>  <SCORE.SYSTEM.norm>
-0.32336

>  <SCORE.heavy>
20

>  <SCORE.norm>
-1.35034

$$$$

  rDOCK(R)          3D
libRbt.so/2013.1/901 2013/11/27
 25 26  0  0  0  0  0  0  0  0999 V2000
   -3.7544   -3.1359   13.9100 C   0  0  0  0  0  0
   -4.7081   -3.5674   12.9687 O   0  0  0  0  0  0
   -2.4872   -2.6452   13.2668 C   0  0  0  0  0  0
   -2.0203   -1.5364   14.2126 C   0  0  0  0  0  0
   -0.8011   -1.9540   14.9431 N   0  0  0  0  0  0
   -0.9097   -2.6588   16.1153 C   0  0  0  0  0  0
    0.2225   -3.0418   16.8293 C   0  0  0  0  0  0
    1.4765   -2.7036   16.3248 C   0  0  0  0  0  0
    2.5606   -3.0309   16.9533 N   0  0  0  0  0  0
    1.5610   -2.0288   15.1536 N   0  0  0  0  0  0
    0.4548   -1.6604   14.4550 C   0  0  0  0  0  0
    0.6462   -0.9945   13.2411 O   0  0  0  0  0  0
   -3.0684   -1.2095   15.1093 O   0  0  0  0  0  0
   -4.2158   -1.9216   14.7093 C   0  0  0  0  0  0
   -5.0367   -2.3148   15.9458 C   0  0  0  0  0  0
   -6.3155   -2.7829   15.5665 O   0  0  0  0  0  0
   -7.4134   -1.4782   15.4616 P   0  0  0  0  0  0
   -7.8342   -1.0490   16.8499 O   0  0  0  0  0  0
   -6.7190   -0.1686   14.6406 O   0  0  0  0  0  0
   -8.7824   -1.9890   14.6102 O   0  0  0  0  0  0
   -4.3356   -4.3484   12.4817 H   0  0  0  0  0  0
    2.5481   -3.5541   17.8583 H   0  0  0  0  0  0
   -0.0585   -0.4319   12.7852 H   0  0  0  0  0  0
   -5.9909    0.1524   15.2304 H   0  0  0  0  0  0
   -8.4468   -2.2082   13.7045 H   0  0  0  0  0  0
  1  2  1  0  0  0
  1  3  1  0  0  0
  3  4  1  0  0  0
  4  5  1  0  0  0
  5  6  1  0  0  0
  6  7  2  0  0  0
  7  8  1  0  0  0
  8  9  2  0  0  0
  8 10  1  0  0  0
 10 11  2  0  0  0
 11 12  1  0  0  0
  4 13  1  0  0  0
 13 14  1  0  0  0
 14 15  1  0  0  0
 15 16  1  0  0  0
 16 17  1  0  0  0
 17 18  2  0  0  0
 17 19  1  0  0  0
 17 20  1  0  0  0
 14  1  1  0  0  0
 11  5  1  0  0  0
  2 21  1  0  0  0
  9 22  1  0  0  0
 12 23  1  0  0  0
 19 24  1  0  0  0
 20 25  1  0  0  0
M  END
>  <CHROM.0>
-179.01083860,-56.78351274,66.67270384,-47.06713333,-175.67985023,-169.14393493
159.80024817,-66.57789679,11.96896846,25.91273342

>  <CHROM.1>
63.52512433,-86.85724886,20.24864506,-72.21547058,-88.50033019,-76.54154028
-66.78467993,-63.30744528,-3.28568650,-2.03357831,15.05292449,-3.11494907
-0.07612545,1.60037514

>  <RI>
1.20554e+07

>  <Rbt.Current_Directory>
/extra/banzai2/j5wagner/CELPP/2016_10_17_rdock_implementation/normal_run/tutorialVideo/tutorial_rdock_implementation/full_week_run/4-docking/5wrn/hiResHolo_1ypv_docking

>  <Rbt.Executable>
rbdock ($Id: //depot/dev/client3/rdock/2013.1/src/exe/rbdock.cxx#4 $)

>  <Rbt.Library>
libRbt.so (2013.1, Build901 2013/11/27)

>  <Rbt.Parameter_File>
/home/j5wagner/env_00/source/rDock/rDock_2013.1_src//data/scripts/dock.prm

>  <Rbt.Receptor>
/extra/banzai2/j5wagner/CELPP/2016_10_17_rdock_implementation/normal_run/tutorialVideo/tutorial_rdock_implementation/full_week_run/4-docking/5wrn/hiResHolo_1ypv_tech_prep/rDockGridGenInput.prm

>  <SCORE>
-26.2461

>  <SCORE.INTER>
-21.9115

>  <SCORE.INTER.CONST>
1

>  <SCORE.INTER.POLAR>
-3.6567

>  <SCORE.INTER.REPUL>
0.0756373

>  <SCORE.INTER.ROT>
4

>  <SCORE.INTER.VDW>
-19.2569

>  <SCORE.INTER.norm>
-1.09557

>  <SCORE.INTRA>
-1.14413

>  <SCORE.INTRA.DIHEDRAL>
-1.5516

>  <SCORE.INTRA.DIHEDRAL.0>
8.98184

>  <SCORE.INTRA.POLAR>
0

>  <SCORE.INTRA.POLAR.0>
0

>  <SCORE.INTRA.REPUL>
0

>  <SCORE.INTRA.REPUL.0>
0

>  <SCORE.INTRA.VDW>
-0.368324

>  <SCORE.INTRA.VDW.0>
-1.60828

>  <SCORE.INTRA.norm>
-0.0572063

>  <SCORE.RESTR>
0

>  <SCORE.RESTR.CAVITY>
0

>  <SCORE.RESTR.norm>
0

>  <SCORE.SYSTEM>
-3.19049

>  <SCORE.SYSTEM.CONST>
0

>  <SCORE.SYSTEM.DIHEDRAL>
4.03468

>  <SCORE.SYSTEM.POLAR>
-1.37606

>  <SCORE.SYSTEM.REPUL>
0.22465

>  <SCORE.SYSTEM.VDW>
-1.65249

>  <SCORE.SYSTEM.norm>
-0.159525

>  <SCORE.heavy>
20

>  <SCORE.norm>
-1.31231

$$$$

  rDOCK(R)          3D
libRbt.so/2013.1/901 2013/11/27
 25 26  0  0  0  0  0  0  0  0999 V2000
   -4.3249   -3.3695   13.6081 C   0  0  0  0  0  0
   -5.2690   -3.8196   12.6656 O   0  0  0  0  0  0
   -3.1089   -2.7628   12.9648 C   0  0  0  0  0  0
   -2.6960   -1.6714   13.9549 C   0  0  0  0  0  0
   -1.4348   -2.0391   14.6394 N   0  0  0  0  0  0
   -1.4652   -2.5230   15.9229 C   0  0  0  0  0  0
   -0.2903   -2.8537   16.5927 C   0  0  0  0  0  0
    0.9245   -2.6932   15.9294 C   0  0  0  0  0  0
    2.0462   -2.9805   16.5096 N   0  0  0  0  0  0
    0.9295   -2.2370   14.6543 N   0  0  0  0  0  0
   -0.2188   -1.9198   14.0000 C   0  0  0  0  0  0
   -0.1122   -1.4870   12.6752 O   0  0  0  0  0  0
   -3.7427   -1.4605   14.8873 O   0  0  0  0  0  0
   -4.8485   -2.2296   14.4755 C   0  0  0  0  0  0
   -5.6120   -2.7370   15.7071 C   0  0  0  0  0  0
   -6.9252   -3.1236   15.3547 O   0  0  0  0  0  0
   -7.9561   -1.7614   15.3380 P   0  0  0  0  0  0
   -9.0691   -1.9725   14.3354 O   0  0  0  0  0  0
   -8.6122   -1.4812   16.8749 O   0  0  0  0  0  0
   -7.0559   -0.4061   14.8762 O   0  0  0  0  0  0
   -4.8541   -4.5451   12.1296 H   0  0  0  0  0  0
    2.0947   -3.3384   17.4907 H   0  0  0  0  0  0
   -0.7922   -0.8988   12.2139 H   0  0  0  0  0  0
   -7.8866   -1.0503   17.3935 H   0  0  0  0  0  0
   -7.5927    0.3675   15.1831 H   0  0  0  0  0  0
  1  2  1  0  0  0
  1  3  1  0  0  0
  3  4  1  0  0  0
  4  5  1  0  0  0
  5  6  1  0  0  0
  6  7  2  0  0  0
  7  8  1  0  0  0
  8  9  2  0  0  0
  8 10  1  0  0  0
 10 11  2  0  0  0
 11 12  1  0  0  0
  4 13  1  0  0  0
 13 14  1  0  0  0
 14 15  1  0  0  0
 15 16  1  0  0  0
 16 17  1  0  0  0
 17 18  2  0  0  0
 17 19  1  0  0  0
 17 20  1  0  0  0
 14  1  1  0  0  0
 11  5  1  0  0  0
  2 21  1  0  0  0
  9 22  1  0  0  0
 12 23  1  0  0  0
 19 24  1  0  0  0
 20 25  1  0  0  0
M  END
>  <CHROM.0>
-68.42748475,-66.41515984,-178.77387008,-167.30199441,15.44687061,-166.85366154
65.27072064,-178.55301564,-165.95485794,16.85543183

>  <CHROM.1>
63.17978760,-102.23071644,25.63794072,-79.27104090,-83.93004254,150.68470360
77.56301957,-160.87003493,-3.86660913,-2.22311794,14.81300388,3.11400873
-0.05770442,1.47348538

>  <RI>
1.20554e+07

>  <Rbt.Current_Directory>
/extra/banzai2/j5wagner/CELPP/2016_10_17_rdock_implementation/normal_run/tutorialVideo/tutorial_rdock_implementation/full_week_run/4-docking/5wrn/hiResHolo_1ypv_docking

>  <Rbt.Executable>
rbdock ($Id: //depot/dev/client3/rdock/2013.1/src/exe/rbdock.cxx#4 $)

>  <Rbt.Library>
libRbt.so (2013.1, Build901 2013/11/27)

>  <Rbt.Parameter_File>
/home/j5wagner/env_00/source/rDock/rDock_2013.1_src//data/scripts/dock.prm

>  <Rbt.Receptor>
/extra/banzai2/j5wagner/CELPP/2016_10_17_rdock_implementation/normal_run/tutorialVideo/tutorial_rdock_implementation/full_week_run/4-docking/5wrn/hiResHolo_1ypv_tech_prep/rDockGridGenInput.prm

>  <SCORE>
-25.705

>  <SCORE.INTER>
-22.6179

>  <SCORE.INTER.CONST>
1

>  <SCORE.INTER.POLAR>
-3.44423

>  <SCORE.INTER.REPUL>
0.0083718

>  <SCORE.INTER.ROT>
4

>  <SCORE.INTER.VDW>
-20.3494

>  <SCORE.INTER.norm>
-1.1309

>  <SCORE.INTRA>
0.267632

>  <SCORE.INTRA.DIHEDRAL>
0.346706

>  <SCORE.INTRA.DIHEDRAL.0>
8.98184

>  <SCORE.INTRA.POLAR>
0

>  <SCORE.INTRA.POLAR.0>
0

>  <SCORE.INTRA.REPUL>
0

>  <SCORE.INTRA.REPUL.0>
0

>  <SCORE.INTRA.VDW>
0.0942787

>  <SCORE.INTRA.VDW.0>
-1.60828

>  <SCORE.INTRA.norm>
0.0133816

>  <SCORE.RESTR>
0

>  <SCORE.RESTR.CAVITY>
0

>  <SCORE.RESTR.norm>
0

>  <SCORE.SYSTEM>
-3.35465

>  <SCORE.SYSTEM.CONST>
0

>  <SCORE.SYSTEM.DIHEDRAL>
2.20545

>  <SCORE.SYSTEM.POLAR>
-1.24967

>  <SCORE.SYSTEM.REPUL>
0.167342

>  <SCORE.SYSTEM.VDW>
-1.04522

>  <SCORE.SYSTEM.norm>
-0.167733

>  <SCORE.heavy>
20

>  <SCORE.norm>
-1.28525

$$$$

  rDOCK(R)          3D
libRbt.so/2013.1/901 2013/11/27
 25 26  0  0  0  0  0  0  0  0999 V2000
   -0.3636   -1.0102   14.1590 C   0  0  0  0  0  0
    0.7567   -1.0192   13.3065 O   0  0  0  0  0  0
   -1.5692   -1.6584   13.5372 C   0  0  0  0  0  0
   -2.2832   -2.2917   14.7335 C   0  0  0  0  0  0
   -3.5440   -1.5720   15.0283 N   0  0  0  0  0  0
   -3.5396   -0.5008   15.8858 C   0  0  0  0  0  0
   -4.7166    0.1759   16.1941 C   0  0  0  0  0  0
   -5.9056   -0.2497   15.6053 C   0  0  0  0  0  0
   -7.0286    0.3416   15.8632 N   0  0  0  0  0  0
   -5.8829   -1.2939   14.7432 N   0  0  0  0  0  0
   -4.7321   -1.9500   14.4391 C   0  0  0  0  0  0
   -4.8062   -2.9952   13.5140 O   0  0  0  0  0  0
   -1.4166   -2.2884   15.8553 O   0  0  0  0  0  0
   -0.1543   -1.8367   15.4237 C   0  0  0  0  0  0
    0.5160   -1.0289   16.5441 C   0  0  0  0  0  0
    1.0002   -1.8883   17.5566 O   0  0  0  0  0  0
    2.3781   -2.7332   17.0034 P   0  0  0  0  0  0
    3.6323   -1.9927   17.4122 O   0  0  0  0  0  0
    2.4115   -4.3086   17.6267 O   0  0  0  0  0  0
    2.3203   -2.8180   15.3153 O   0  0  0  0  0  0
    1.4299   -0.3852   13.6682 H   0  0  0  0  0  0
   -7.0976    1.1532   16.5187 H   0  0  0  0  0  0
   -5.5863   -3.1463   12.8898 H   0  0  0  0  0  0
    1.5870   -4.7404   17.2881 H   0  0  0  0  0  0
    1.6260   -3.4974   15.1223 H   0  0  0  0  0  0
  1  2  1  0  0  0
  1  3  1  0  0  0
  3  4  1  0  0  0
  4  5  1  0  0  0
  5  6  1  0  0  0
  6  7  2  0  0  0
  7  8  1  0  0  0
  8  9  2  0  0  0
  8 10  1  0  0  0
 10 11  2  0  0  0
 11 12  1  0  0  0
  4 13  1  0  0  0
 13 14  1  0  0  0
 14 15  1  0  0  0
 15 16  1  0  0  0
 16 17  1  0  0  0
 17 18  2  0  0  0
 17 19  1  0  0  0
 17 20  1  0  0  0
 14  1  1  0  0  0
 11  5  1  0  0  0
  2 21  1  0  0  0
  9 22  1  0  0  0
 12 23  1  0  0  0
 19 24  1  0  0  0
 20 25  1  0  0  0
M  END
>  <CHROM.0>
-178.52465887,-54.33099000,70.22742357,-162.87457162,179.49640598,-172.12514869
-61.92707063,63.75011031,-175.66774408,-179.71915710

>  <CHROM.1>
165.57411186,-89.14368569,-163.35606759,-165.07833455,72.37690391,94.08417401
60.85478349,-74.55418845,-1.26646176,-1.76730861,15.58811326,-0.16516741
0.24926665,-1.76528890

>  <RI>
1.20554e+07

>  <Rbt.Current_Directory>
/extra/banzai2/j5wagner/CELPP/2016_10_17_rdock_implementation/normal_run/tutorialVideo/tutorial_rdock_implementation/full_week_run/4-docking/5wrn/hiResHolo_1ypv_docking

>  <Rbt.Executable>
rbdock ($Id: //depot/dev/client3/rdock/2013.1/src/exe/rbdock.cxx#4 $)

>  <Rbt.Library>
libRbt.so (2013.1, Build901 2013/11/27)

>  <Rbt.Parameter_File>
/home/j5wagner/env_00/source/rDock/rDock_2013.1_src//data/scripts/dock.prm

>  <Rbt.Receptor>
/extra/banzai2/j5wagner/CELPP/2016_10_17_rdock_implementation/normal_run/tutorialVideo/tutorial_rdock_implementation/full_week_run/4-docking/5wrn/hiResHolo_1ypv_tech_prep/rDockGridGenInput.prm

>  <SCORE>
-25.0456

>  <SCORE.INTER>
-18.3652

>  <SCORE.INTER.CONST>
1

>  <SCORE.INTER.POLAR>
-3.24503

>  <SCORE.INTER.REPUL>
0.0442427

>  <SCORE.INTER.ROT>
4

>  <SCORE.INTER.VDW>
-16.9533

>  <SCORE.INTER.norm>
-0.918261

>  <SCORE.INTRA>
-0.136512

>  <SCORE.INTRA.DIHEDRAL>
-1.80255

>  <SCORE.INTRA.DIHEDRAL.0>
8.98184

>  <SCORE.INTRA.POLAR>
0

>  <SCORE.INTRA.POLAR.0>
0

>  <SCORE.INTRA.REPUL>
0

>  <SCORE.INTRA.REPUL.0>
0

>  <SCORE.INTRA.VDW>
0.764766

>  <SCORE.INTRA.VDW.0>
-1.60828

>  <SCORE.INTRA.norm>
-0.0068256

>  <SCORE.RESTR>
1.31681

>  <SCORE.RESTR.CAVITY>
1.31681

>  <SCORE.RESTR.norm>
0.0658404

>  <SCORE.SYSTEM>
-7.86067

>  <SCORE.SYSTEM.CONST>
0

>  <SCORE.SYSTEM.DIHEDRAL>
1.5662

>  <SCORE.SYSTEM.POLAR>
-2.77964

>  <SCORE.SYSTEM.REPUL>
0.544847

>  <SCORE.SYSTEM.VDW>
-1.91724

>  <SCORE.SYSTEM.norm>
-0.393033

>  <SCORE.heavy>
20

>  <SCORE.norm>
-1.25228

$$$$

  rDOCK(R)          3D
libRbt.so/2013.1/901 2013/11/27
 25 26  0  0  0  0  0  0  0  0999 V2000
   -0.4072   -1.3528   13.3299 C   0  0  0  0  0  0
    0.5827   -0.7359   12.5416 O   0  0  0  0  0  0
   -1.4192   -2.1009   12.5072 C   0  0  0  0  0  0
   -1.8015   -3.2782   13.4071 C   0  0  0  0  0  0
   -3.1860   -3.1214   13.9098 N   0  0  0  0  0  0
   -3.4310   -2.3555   15.0215 C   0  0  0  0  0  0
   -4.7215   -2.2128   15.5240 C   0  0  0  0  0  0
   -5.7686   -2.8573   14.8685 C   0  0  0  0  0  0
   -6.9865   -2.7616   15.2986 N   0  0  0  0  0  0
   -5.5074   -3.5884   13.7589 N   0  0  0  0  0  0
   -4.2476   -3.7222   13.2665 C   0  0  0  0  0  0
   -4.0840   -4.4716   12.0981 O   0  0  0  0  0  0
   -0.8756   -3.3743   14.4762 O   0  0  0  0  0  0
    0.1518   -2.4398   14.2421 C   0  0  0  0  0  0
    0.6532   -1.8776   15.5799 C   0  0  0  0  0  0
    2.0516   -1.6747   15.5422 O   0  0  0  0  0  0
    2.7585   -2.1665   17.0177 P   0  0  0  0  0  0
    4.2426   -2.3891   16.8265 O   0  0  0  0  0  0
    2.5019   -1.0073   18.2267 O   0  0  0  0  0  0
    2.0464   -3.6224   17.5011 O   0  0  0  0  0  0
    0.1464   -0.0484   11.9734 H   0  0  0  0  0  0
   -7.2395   -2.2072   16.1480 H   0  0  0  0  0  0
   -3.1883   -4.6886   11.6837 H   0  0  0  0  0  0
    2.4698   -0.1385   17.7522 H   0  0  0  0  0  0
    1.0934   -3.3978   17.6499 H   0  0  0  0  0  0
  1  2  1  0  0  0
  1  3  1  0  0  0
  3  4  1  0  0  0
  4  5  1  0  0  0
  5  6  1  0  0  0
  6  7  2  0  0  0
  7  8  1  0  0  0
  8  9  2  0  0  0
  8 10  1  0  0  0
 10 11  2  0  0  0
 11 12  1  0  0  0
  4 13  1  0  0  0
 13 14  1  0  0  0
 14 15  1  0  0  0
 15 16  1  0  0  0
 16 17  1  0  0  0
 17 18  2  0  0  0
 17 19  1  0  0  0
 17 20  1  0  0  0
 14  1  1  0  0  0
 11  5  1  0  0  0
  2 21  1  0  0  0
  9 22  1  0  0  0
 12 23  1  0  0  0
 19 24  1  0  0  0
 20 25  1  0  0  0
M  END
>  <CHROM.0>
-75.28142312,-56.41673350,67.54807987,68.20853117,8.50274520,6.75722531,64.76845694
-178.52078436,-171.37326039,177.08461390

>  <CHROM.1>
63.88951226,-84.00775632,4.99081422,-97.33033113,-138.77750366,161.17507416
-30.88129713,-63.09573075,-0.98134668,-2.51656384,14.91912286,-0.34554210
-0.16269245,-1.53785594

>  <RI>
1.20554e+07

>  <Rbt.Current_Directory>
/extra/banzai2/j5wagner/CELPP/2016_10_17_rdock_implementation/normal_run/tutorialVideo/tutorial_rdock_implementation/full_week_run/4-docking/5wrn/hiResHolo_1ypv_docking

>  <Rbt.Executable>
rbdock ($Id: //depot/dev/client3/rdock/2013.1/src/exe/rbdock.cxx#4 $)

>  <Rbt.Library>
libRbt.so (2013.1, Build901 2013/11/27)

>  <Rbt.Parameter_File>
/home/j5wagner/env_00/source/rDock/rDock_2013.1_src//data/scripts/dock.prm

>  <Rbt.Receptor>
/extra/banzai2/j5wagner/CELPP/2016_10_17_rdock_implementation/normal_run/tutorialVideo/tutorial_rdock_implementation/full_week_run/4-docking/5wrn/hiResHolo_1ypv_tech_prep/rDockGridGenInput.prm

>  <SCORE>
-24.8289

>  <SCORE.INTER>
-19.5261

>  <SCORE.INTER.CONST>
1

>  <SCORE.INTER.POLAR>
-3.29366

>  <SCORE.INTER.REPUL>
0

>  <SCORE.INTER.ROT>
4

>  <SCORE.INTER.VDW>
-17.7277

>  <SCORE.INTER.norm>
-0.976306

>  <SCORE.INTRA>
2.40198

>  <SCORE.INTRA.DIHEDRAL>
4.55281

>  <SCORE.INTRA.DIHEDRAL.0>
8.98184

>  <SCORE.INTRA.POLAR>
0

>  <SCORE.INTRA.POLAR.0>
0

>  <SCORE.INTRA.REPUL>
0

>  <SCORE.INTRA.REPUL.0>
0

>  <SCORE.INTRA.VDW>
0.125575

>  <SCORE.INTRA.VDW.0>
-1.60828

>  <SCORE.INTRA.norm>
0.120099

>  <SCORE.RESTR>
0.273331

>  <SCORE.RESTR.CAVITY>
0.273331

>  <SCORE.RESTR.norm>
0.0136666

>  <SCORE.SYSTEM>
-7.97812

>  <SCORE.SYSTEM.CONST>
0

>  <SCORE.SYSTEM.DIHEDRAL>
1.4947

>  <SCORE.SYSTEM.POLAR>
-2.25282

>  <SCORE.SYSTEM.REPUL>
0.0570731

>  <SCORE.SYSTEM.VDW>
-1.35123

>  <SCORE.SYSTEM.norm>
-0.398906

>  <SCORE.heavy>
20

>  <SCORE.norm>
-1.24145

$$$$

  rDOCK(R)          3D
libRbt.so/2013.1/901 2013/11/27
 25 26  0  0  0  0  0  0  0  0999 V2000
    6.2476    7.4219   12.3701 C   0  0  0  0  0  0
    5.6985    6.2487   12.9215 O   0  0  0  0  0  0
    5.2414    8.2199   11.5883 C   0  0  0  0  0  0
    5.6859    9.6662   11.8181 C   0  0  0  0  0  0
    6.2455   10.2431   10.5737 N   0  0  0  0  0  0
    7.2149    9.5662    9.8776 C   0  0  0  0  0  0
    7.7704   10.1003    8.7180 C   0  0  0  0  0  0
    7.3149   11.3378    8.2679 C   0  0  0  0  0  0
    7.8027   11.8812    7.1984 N   0  0  0  0  0  0
    6.3401   11.9772    8.9571 N   0  0  0  0  0  0
    5.7950   11.4518   10.0859 C   0  0  0  0  0  0
    4.7725   12.1728   10.7090 O   0  0  0  0  0  0
    6.6323    9.7065   12.8726 O   0  0  0  0  0  0
    6.7120    8.4155   13.4300 C   0  0  0  0  0  0
    8.1491    8.1420   13.8959 C   0  0  0  0  0  0
    8.1518    7.3257   15.0500 O   0  0  0  0  0  0
    9.7451    7.1424   15.6386 P   0  0  0  0  0  0
    9.7114    6.7967   17.1110 O   0  0  0  0  0  0
   10.5701    5.9346   14.7831 O   0  0  0  0  0  0
   10.5678    8.6067   15.4406 O   0  0  0  0  0  0
    4.9548    6.5063   13.5269 H   0  0  0  0  0  0
    8.5535   11.4264    6.6305 H   0  0  0  0  0  0
    4.4067   13.0503   10.3664 H   0  0  0  0  0  0
   10.0116    5.1219   14.8755 H   0  0  0  0  0  0
   11.5016    8.4067   15.7030 H   0  0  0  0  0  0
  1  2  1  0  0  0
  1  3  1  0  0  0
  3  4  1  0  0  0
  4  5  1  0  0  0
  5  6  1  0  0  0
  6  7  2  0  0  0
  7  8  1  0  0  0
  8  9  2  0  0  0
  8 10  1  0  0  0
 10 11  2  0  0  0
 11 12  1  0  0  0
  4 13  1  0  0  0
 13 14  1  0  0  0
 14 15  1  0  0  0
 15 16  1  0  0  0
 16 17  1  0  0  0
 17 18  2  0  0  0
 17 19  1  0  0  0
 17 20  1  0  0  0
 14  1  1  0  0  0
 11  5  1  0  0  0
  2 21  1  0  0  0
  9 22  1  0  0  0
 12 23  1  0  0  0
 19 24  1  0  0  0
 20 25  1  0  0  0
M  END
>  <CHROM.0>
-176.90869971,-54.87113772,-179.39794102,-165.27646824,-168.46901677,11.51884012
-178.26383599,-59.40902884,-175.32398693,176.53403953

>  <CHROM.1>
-59.62350089,-50.68383332,-178.63914062,-93.82799717,-175.01486080,156.45865109
-56.34076181,-173.88856191,7.51276607,8.93122725,12.40972308,1.18465566,0.14122928
2.21218904

>  <RI>
1.20554e+07

>  <Rbt.Current_Directory>
/extra/banzai2/j5wagner/CELPP/2016_10_17_rdock_implementation/normal_run/tutorialVideo/tutorial_rdock_implementation/full_week_run/4-docking/5wrn/hiResHolo_1ypv_docking

>  <Rbt.Executable>
rbdock ($Id: //depot/dev/client3/rdock/2013.1/src/exe/rbdock.cxx#4 $)

>  <Rbt.Library>
libRbt.so (2013.1, Build901 2013/11/27)

>  <Rbt.Parameter_File>
/home/j5wagner/env_00/source/rDock/rDock_2013.1_src//data/scripts/dock.prm

>  <Rbt.Receptor>
/extra/banzai2/j5wagner/CELPP/2016_10_17_rdock_implementation/normal_run/tutorialVideo/tutorial_rdock_implementation/full_week_run/4-docking/5wrn/hiResHolo_1ypv_tech_prep/rDockGridGenInput.prm

>  <SCORE>
-24.2364

>  <SCORE.INTER>
-17.5795

>  <SCORE.INTER.CONST>
1

>  <SCORE.INTER.POLAR>
-2.02

>  <SCORE.INTER.REPUL>
0

>  <SCORE.INTER.ROT>
4

>  <SCORE.INTER.VDW>
-20.1115

>  <SCORE.INTER.norm>
-0.878977

>  <SCORE.INTRA>
-0.437755

>  <SCORE.INTRA.DIHEDRAL>
-2.40299

>  <SCORE.INTRA.DIHEDRAL.0>
8.98184

>  <SCORE.INTRA.POLAR>
0

>  <SCORE.INTRA.POLAR.0>
0

>  <SCORE.INTRA.REPUL>
0

>  <SCORE.INTRA.REPUL.0>
0

>  <SCORE.INTRA.VDW>
0.763742

>  <SCORE.INTRA.VDW.0>
-1.60828

>  <SCORE.INTRA.norm>
-0.0218878

>  <SCORE.RESTR>
1.43573

>  <SCORE.RESTR.CAVITY>
1.43573

>  <SCORE.RESTR.norm>
0.0717863

>  <SCORE.SYSTEM>
-7.6548

>  <SCORE.SYSTEM.CONST>
0

>  <SCORE.SYSTEM.DIHEDRAL>
1.14697

>  <SCORE.SYSTEM.POLAR>
-2.32256

>  <SCORE.SYSTEM.REPUL>
0.104276

>  <SCORE.SYSTEM.VDW>
-0.852966

>  <SCORE.SYSTEM.norm>
-0.38274

>  <SCORE.heavy>
20

>  <SCORE.norm>
-1.21182

$$$$

  rDOCK(R)          3D
libRbt.so/2013.1/901 2013/11/27
 25 26  0  0  0  0  0  0  0  0999 V2000
   -4.0716   -3.5076   13.7284 C   0  0  0  0  0  0
   -5.0184   -4.2643   13.0122 O   0  0  0  0  0  0
   -3.1099   -2.7824   12.8284 C   0  0  0  0  0  0
   -2.8062   -1.4976   13.6024 C   0  0  0  0  0  0
   -1.4148   -1.5121   14.1105 N   0  0  0  0  0  0
   -1.1757   -1.6349   15.4560 C   0  0  0  0  0  0
    0.1233   -1.6285   15.9571 C   0  0  0  0  0  0
    1.1839   -1.5045   15.0620 C   0  0  0  0  0  0
    2.4105   -1.4871   15.4771 N   0  0  0  0  0  0
    0.9258   -1.4090   13.7360 N   0  0  0  0  0  0
   -0.3427   -1.4209   13.2480 C   0  0  0  0  0  0
   -0.5051   -1.3487   11.8616 O   0  0  0  0  0  0
   -3.7373   -1.3541   14.6615 O   0  0  0  0  0  0
   -4.7012   -2.3725   14.5291 C   0  0  0  0  0  0
   -5.1660   -2.8276   15.9198 C   0  0  0  0  0  0
   -5.9402   -1.8209   16.5405 O   0  0  0  0  0  0
   -7.5477   -1.8744   15.9645 P   0  0  0  0  0  0
   -7.6999   -0.9440   14.7813 O   0  0  0  0  0  0
   -7.9765   -3.4509   15.5152 O   0  0  0  0  0  0
   -8.5831   -1.3607   17.1991 O   0  0  0  0  0  0
   -5.6419   -3.6377   12.5600 H   0  0  0  0  0  0
    2.6613   -1.5608   16.4893 H   0  0  0  0  0  0
    0.0964   -0.8185   11.2466 H   0  0  0  0  0  0
   -7.8360   -4.0007   16.3271 H   0  0  0  0  0  0
   -8.1085   -0.6029   17.6249 H   0  0  0  0  0  0
  1  2  1  0  0  0
  1  3  1  0  0  0
  3  4  1  0  0  0
  4  5  1  0  0  0
  5  6  1  0  0  0
  6  7  2  0  0  0
  7  8  1  0  0  0
  8  9  2  0  0  0
  8 10  1  0  0  0
 10 11  2  0  0  0
 11 12  1  0  0  0
  4 13  1  0  0  0
 13 14  1  0  0  0
 14 15  1  0  0  0
 15 16  1  0  0  0
 16 17  1  0  0  0
 17 18  2  0  0  0
 17 19  1  0  0  0
 17 20  1  0  0  0
 14  1  1  0  0  0
 11  5  1  0  0  0
  2 21  1  0  0  0
  9 22  1  0  0  0
 12 23  1  0  0  0
 19 24  1  0  0  0
 20 25  1  0  0  0
M  END
>  <CHROM.0>
-68.65038080,-68.44504447,70.28107459,-47.75275107,179.46759865,-158.15241317
-52.98841429,63.17011516,23.23468574,-175.35825595

>  <CHROM.1>
-70.21827961,-110.16068092,145.75867327,-170.11324499,81.30277024,-92.12068465
57.34981053,40.11197162,-3.67064841,-2.00376780,14.74751116,2.97867763,0.14142684
1.21378226

>  <RI>
1.20554e+07

>  <Rbt.Current_Directory>
/extra/banzai2/j5wagner/CELPP/2016_10_17_rdock_implementation/normal_run/tutorialVideo/tutorial_rdock_implementation/full_week_run/4-docking/5wrn/hiResHolo_1ypv_docking

>  <Rbt.Executable>
rbdock ($Id: //depot/dev/client3/rdock/2013.1/src/exe/rbdock.cxx#4 $)

>  <Rbt.Library>
libRbt.so (2013.1, Build901 2013/11/27)

>  <Rbt.Parameter_File>
/home/j5wagner/env_00/source/rDock/rDock_2013.1_src//data/scripts/dock.prm

>  <Rbt.Receptor>
/extra/banzai2/j5wagner/CELPP/2016_10_17_rdock_implementation/normal_run/tutorialVideo/tutorial_rdock_implementation/full_week_run/4-docking/5wrn/hiResHolo_1ypv_tech_prep/rDockGridGenInput.prm

>  <SCORE>
-23.8662

>  <SCORE.INTER>
-17.7453

>  <SCORE.INTER.CONST>
1

>  <SCORE.INTER.POLAR>
-4.5422

>  <SCORE.INTER.REPUL>
0

>  <SCORE.INTER.ROT>
4

>  <SCORE.INTER.VDW>
-11.7018

>  <SCORE.INTER.norm>
-0.887265

>  <SCORE.INTRA>
0.155231

>  <SCORE.INTRA.DIHEDRAL>
-0.245483

>  <SCORE.INTRA.DIHEDRAL.0>
8.98184

>  <SCORE.INTRA.POLAR>
0

>  <SCORE.INTRA.POLAR.0>
0

>  <SCORE.INTRA.REPUL>
0

>  <SCORE.INTRA.REPUL.0>
0

>  <SCORE.INTRA.VDW>
0.277973

>  <SCORE.INTRA.VDW.0>
-1.60828

>  <SCORE.INTRA.norm>
0.00776157

>  <SCORE.RESTR>
0.179894

>  <SCORE.RESTR.CAVITY>
0.179894

>  <SCORE.RESTR.norm>
0.00899468

>  <SCORE.SYSTEM>
-6.45606

>  <SCORE.SYSTEM.CONST>
0

>  <SCORE.SYSTEM.DIHEDRAL>
3.14601

>  <SCORE.SYSTEM.POLAR>
-2.60118

>  <SCORE.SYSTEM.REPUL>
0.544851

>  <SCORE.SYSTEM.VDW>
-1.90931

>  <SCORE.SYSTEM.norm>
-0.322803

>  <SCORE.heavy>
20

>  <SCORE.norm>
-1.19331

$$$$

  rDOCK(R)          3D
libRbt.so/2013.1/901 2013/11/27
 25 26  0  0  0  0  0  0  0  0999 V2000
   -3.6470   -3.4986   13.1154 C   0  0  0  0  0  0
   -4.4675   -4.1713   12.1901 O   0  0  0  0  0  0
   -2.2468   -3.2956   12.6067 C   0  0  0  0  0  0
   -1.8363   -1.9609   13.2329 C   0  0  0  0  0  0
   -0.8055   -2.1701   14.2760 N   0  0  0  0  0  0
   -1.0971   -2.9149   15.3908 C   0  0  0  0  0  0
   -0.1504   -3.1055   16.3938 C   0  0  0  0  0  0
    1.1099   -2.5314   16.2405 C   0  0  0  0  0  0
    2.0241   -2.6736   17.1468 N   0  0  0  0  0  0
    1.3839   -1.8205   15.1209 N   0  0  0  0  0  0
    0.4603   -1.6400   14.1402 C   0  0  0  0  0  0
    0.8485   -0.9172   13.0085 O   0  0  0  0  0  0
   -2.9819   -1.3181   13.7658 O   0  0  0  0  0  0
   -4.1115   -2.0730   13.3946 C   0  0  0  0  0  0
   -5.1639   -2.0105   14.5108 C   0  0  0  0  0  0
   -5.3502   -0.6784   14.9457 O   0  0  0  0  0  0
   -6.8863   -0.5054   15.6732 P   0  0  0  0  0  0
   -7.1318   -1.6499   16.6317 O   0  0  0  0  0  0
   -7.0015    0.9702   16.4981 O   0  0  0  0  0  0
   -8.0668   -0.5448   14.4628 O   0  0  0  0  0  0
   -4.1283   -5.0989   12.0881 H   0  0  0  0  0  0
    1.8626   -3.2151   18.0263 H   0  0  0  0  0  0
    0.2088   -0.4151   12.4088 H   0  0  0  0  0  0
   -6.1908    1.0158   17.0653 H   0  0  0  0  0  0
   -7.9454   -1.4239   14.0231 H   0  0  0  0  0  0
  1  2  1  0  0  0
  1  3  1  0  0  0
  3  4  1  0  0  0
  4  5  1  0  0  0
  5  6  1  0  0  0
  6  7  2  0  0  0
  7  8  1  0  0  0
  8  9  2  0  0  0
  8 10  1  0  0  0
 10 11  2  0  0  0
 11 12  1  0  0  0
  4 13  1  0  0  0
 13 14  1  0  0  0
 14 15  1  0  0  0
 15 16  1  0  0  0
 16 17  1  0  0  0
 17 18  2  0  0  0
 17 19  1  0  0  0
 17 20  1  0  0  0
 14  1  1  0  0  0
 11  5  1  0  0  0
  2 21  1  0  0  0
  9 22  1  0  0  0
 12 23  1  0  0  0
 19 24  1  0  0  0
 20 25  1  0  0  0
M  END
>  <CHROM.0>
-62.57847693,-57.10930147,69.85689267,72.06817956,-173.62828339,-154.94828609
-40.53492772,-63.75055594,21.42020503,-174.28960566

>  <CHROM.1>
66.59749102,-62.49692659,25.57205178,166.97631918,156.97223561,45.98721864
-49.84122019,59.13185348,-3.14393001,-1.79728677,14.68767273,3.01102031,-0.16094706
1.10150592

>  <RI>
1.20554e+07

>  <Rbt.Current_Directory>
/extra/banzai2/j5wagner/CELPP/2016_10_17_rdock_implementation/normal_run/tutorialVideo/tutorial_rdock_implementation/full_week_run/4-docking/5wrn/hiResHolo_1ypv_docking

>  <Rbt.Executable>
rbdock ($Id: //depot/dev/client3/rdock/2013.1/src/exe/rbdock.cxx#4 $)

>  <Rbt.Library>
libRbt.so (2013.1, Build901 2013/11/27)

>  <Rbt.Parameter_File>
/home/j5wagner/env_00/source/rDock/rDock_2013.1_src//data/scripts/dock.prm

>  <Rbt.Receptor>
/extra/banzai2/j5wagner/CELPP/2016_10_17_rdock_implementation/normal_run/tutorialVideo/tutorial_rdock_implementation/full_week_run/4-docking/5wrn/hiResHolo_1ypv_tech_prep/rDockGridGenInput.prm

>  <SCORE>
-23.8132

>  <SCORE.INTER>
-16.5546

>  <SCORE.INTER.CONST>
1

>  <SCORE.INTER.POLAR>
-2.96805

>  <SCORE.INTER.REPUL>
0.00841785

>  <SCORE.INTER.ROT>
4

>  <SCORE.INTER.VDW>
-15.9053

>  <SCORE.INTER.norm>
-0.82773

>  <SCORE.INTRA>
-0.707615

>  <SCORE.INTRA.DIHEDRAL>
-2.05762

>  <SCORE.INTRA.DIHEDRAL.0>
8.98184

>  <SCORE.INTRA.POLAR>
0

>  <SCORE.INTRA.POLAR.0>
0

>  <SCORE.INTRA.REPUL>
0

>  <SCORE.INTRA.REPUL.0>
0

>  <SCORE.INTRA.VDW>
0.321193

>  <SCORE.INTRA.VDW.0>
-1.60828

>  <SCORE.INTRA.norm>
-0.0353807

>  <SCORE.RESTR>
0.0863189

>  <SCORE.RESTR.CAVITY>
0.0863189

>  <SCORE.RESTR.norm>
0.00431595

>  <SCORE.SYSTEM>
-6.63727

>  <SCORE.SYSTEM.CONST>
0

>  <SCORE.SYSTEM.DIHEDRAL>
4.2903

>  <SCORE.SYSTEM.POLAR>
-2.34909

>  <SCORE.SYSTEM.REPUL>
0.125569

>  <SCORE.SYSTEM.VDW>
-1.42335

>  <SCORE.SYSTEM.norm>
-0.331864

>  <SCORE.heavy>
20

>  <SCORE.norm>
-1.19066

$$$$

  rDOCK(R)          3D
libRbt.so/2013.1/901 2013/11/27
 25 26  0  0  0  0  0  0  0  0999 V2000
   -2.5150   -1.2165   17.4081 C   0  0  0  0  0  0
   -1.5569   -0.9398   18.4018 O   0  0  0  0  0  0
   -3.4740   -0.0781   17.1958 C   0  0  0  0  0  0
   -3.7931   -0.1624   15.7014 C   0  0  0  0  0  0
   -5.1887   -0.6127   15.4915 N   0  0  0  0  0  0
   -6.2319    0.2429   15.7411 C   0  0  0  0  0  0
   -7.5517   -0.1667   15.5718 C   0  0  0  0  0  0
   -7.7966   -1.4659   15.1321 C   0  0  0  0  0  0
   -9.0058   -1.8983   14.9643 N   0  0  0  0  0  0
   -6.7514   -2.2858   14.8685 N   0  0  0  0  0  0
   -5.4634   -1.8825   15.0291 C   0  0  0  0  0  0
   -4.4534   -2.7912   14.7008 O   0  0  0  0  0  0
   -2.8721   -1.0366   15.0714 O   0  0  0  0  0  0
   -1.9001   -1.3984   16.0243 C   0  0  0  0  0  0
   -1.4440   -2.8429   15.7740 C   0  0  0  0  0  0
   -1.4433   -3.1323   14.3903 O   0  0  0  0  0  0
   -0.2601   -2.1931   13.5924 P   0  0  0  0  0  0
   -0.5114   -0.7239   13.8508 O   0  0  0  0  0  0
    1.2966   -2.6108   14.1152 O   0  0  0  0  0  0
   -0.3703   -2.4812   11.9296 O   0  0  0  0  0  0
   -2.0347   -0.6952   19.2371 H   0  0  0  0  0  0
   -9.8451   -1.3036   15.1510 H   0  0  0  0  0  0
   -3.4957   -2.5310   14.5106 H   0  0  0  0  0  0
    1.3501   -3.5948   14.0148 H   0  0  0  0  0  0
   -1.2955   -2.2204   11.6910 H   0  0  0  0  0  0
  1  2  1  0  0  0
  1  3  1  0  0  0
  3  4  1  0  0  0
  4  5  1  0  0  0
  5  6  1  0  0  0
  6  7  2  0  0  0
  7  8  1  0  0  0
  8  9  2  0  0  0
  8 10  1  0  0  0
 10 11  2  0  0  0
 11 12  1  0  0  0
  4 13  1  0  0  0
 13 14  1  0  0  0
 14 15  1  0  0  0
 15 16  1  0  0  0
 16 17  1  0  0  0
 17 18  2  0  0  0
 17 19  1  0  0  0
 17 20  1  0  0  0
 14  1  1  0  0  0
 11  5  1  0  0  0
  2 21  1  0  0  0
  9 22  1  0  0  0
 12 23  1  0  0  0
 19 24  1  0  0  0
 20 25  1  0  0  0
M  END
>  <CHROM.0>
63.22116007,-51.13121021,-178.61790869,68.43409751,-3.04665259,175.12992262
-170.12733488,62.80284527,179.78770467,171.52891062

>  <CHROM.1>
55.53077574,73.54125785,-18.82189528,154.11817257,66.02262179,-56.82888447
51.97383958,59.09728267,-3.22266947,-1.56687179,15.11199192,-0.23154864,-0.06024713
1.15235669

>  <RI>
1.20554e+07

>  <Rbt.Current_Directory>
/extra/banzai2/j5wagner/CELPP/2016_10_17_rdock_implementation/normal_run/tutorialVideo/tutorial_rdock_implementation/full_week_run/4-docking/5wrn/hiResHolo_1ypv_docking

>  <Rbt.Executable>
rbdock ($Id: //depot/dev/client3/rdock/2013.1/src/exe/rbdock.cxx#4 $)

>  <Rbt.Library>
libRbt.so (2013.1, Build901 2013/11/27)

>  <Rbt.Parameter_File>
/home/j5wagner/env_00/source/rDock/rDock_2013.1_src//data/scripts/dock.prm

>  <Rbt.Receptor>
/extra/banzai2/j5wagner/CELPP/2016_10_17_rdock_implementation/normal_run/tutorialVideo/tutorial_rdock_implementation/full_week_run/4-docking/5wrn/hiResHolo_1ypv_tech_prep/rDockGridGenInput.prm

>  <SCORE>
-23.7017

>  <SCORE.INTER>
-14.4228

>  <SCORE.INTER.CONST>
1

>  <SCORE.INTER.POLAR>
-2.49059

>  <SCORE.INTER.REPUL>
0.0278637

>  <SCORE.INTER.ROT>
4

>  <SCORE.INTER.VDW>
-15.4941

>  <SCORE.INTER.norm>
-0.721142

>  <SCORE.INTRA>
-3.27669

>  <SCORE.INTRA.DIHEDRAL>
-3.57729

>  <SCORE.INTRA.DIHEDRAL.0>
8.98184

>  <SCORE.INTRA.POLAR>
-1.24142

>  <SCORE.INTRA.POLAR.0>
0

>  <SCORE.INTRA.REPUL>
0

>  <SCORE.INTRA.REPUL.0>
0

>  <SCORE.INTRA.VDW>
2.73276

>  <SCORE.INTRA.VDW.0>
-1.60828

>  <SCORE.INTRA.norm>
-0.163835

>  <SCORE.RESTR>
0.848042

>  <SCORE.RESTR.CAVITY>
0.848042

>  <SCORE.RESTR.norm>
0.0424021

>  <SCORE.SYSTEM>
-6.85024

>  <SCORE.SYSTEM.CONST>
0

>  <SCORE.SYSTEM.DIHEDRAL>
1.26862

>  <SCORE.SYSTEM.POLAR>
-2.64625

>  <SCORE.SYSTEM.REPUL>
0.525914

>  <SCORE.SYSTEM.VDW>
-1.11687

>  <SCORE.SYSTEM.norm>
-0.342512

>  <SCORE.heavy>
20

>  <SCORE.norm>
-1.18509

$$$$

  rDOCK(R)          3D
libRbt.so/2013.1/901 2013/11/27
 25 26  0  0  0  0  0  0  0  0999 V2000
   -3.9136   -3.5650   13.6022 C   0  0  0  0  0  0
   -4.5594   -4.1352   12.4888 O   0  0  0  0  0  0
   -2.7815   -2.6559   13.2117 C   0  0  0  0  0  0
   -2.8009   -1.5830   14.3028 C   0  0  0  0  0  0
   -1.6196   -1.7172   15.1864 N   0  0  0  0  0  0
   -0.3758   -1.3605   14.7300 C   0  0  0  0  0  0
    0.7510   -1.4994   15.5359 C   0  0  0  0  0  0
    0.5917   -2.0009   16.8261 C   0  0  0  0  0  0
    1.6081   -2.1552   17.6137 N   0  0  0  0  0  0
   -0.6484   -2.3238   17.2645 N   0  0  0  0  0  0
   -1.7480   -2.1824   16.4782 C   0  0  0  0  0  0
   -2.9881   -2.5132   17.0318 O   0  0  0  0  0  0
   -4.0071   -1.6830   15.0407 O   0  0  0  0  0  0
   -4.8219   -2.6413   14.4072 C   0  0  0  0  0  0
   -5.6401   -3.4012   15.4609 C   0  0  0  0  0  0
   -6.1539   -2.5100   16.4305 O   0  0  0  0  0  0
   -7.3503   -1.5083   15.7350 P   0  0  0  0  0  0
   -8.1296   -0.8070   16.8256 O   0  0  0  0  0  0
   -6.6523   -0.3630   14.6995 O   0  0  0  0  0  0
   -8.4123   -2.4737   14.8403 O   0  0  0  0  0  0
   -4.9056   -3.4002   11.9180 H   0  0  0  0  0  0
    2.5839   -1.9178   17.3233 H   0  0  0  0  0  0
   -3.2784   -3.4559   17.2510 H   0  0  0  0  0  0
   -5.6866   -0.3670   14.9194 H   0  0  0  0  0  0
   -7.9477   -2.6251   13.9788 H   0  0  0  0  0  0
  1  2  1  0  0  0
  1  3  1  0  0  0
  3  4  1  0  0  0
  4  5  1  0  0  0
  5  6  1  0  0  0
  6  7  2  0  0  0
  7  8  1  0  0  0
  8  9  2  0  0  0
  8 10  1  0  0  0
 10 11  2  0  0  0
 11 12  1  0  0  0
  4 13  1  0  0  0
 13 14  1  0  0  0
 14 15  1  0  0  0
 15 16  1  0  0  0
 16 17  1  0  0  0
 17 18  2  0  0  0
 17 19  1  0  0  0
 17 20  1  0  0  0
 14  1  1  0  0  0
 11  5  1  0  0  0
  2 21  1  0  0  0
  9 22  1  0  0  0
 12 23  1  0  0  0
 19 24  1  0  0  0
 20 25  1  0  0  0
M  END
>  <CHROM.0>
-179.35215375,-55.74644927,-68.91191892,-162.48513687,1.00392970,172.90787769
69.21360848,61.06937983,-176.58019460,177.27991659

>  <CHROM.1>
-58.66407426,72.57935848,110.50440209,162.66852603,68.77868454,166.05846245
-15.26928901,-80.88824510,-3.86732587,-2.11903963,15.39501102,-3.03507939
-0.06201351,1.19003214

>  <RI>
1.20554e+07

>  <Rbt.Current_Directory>
/extra/banzai2/j5wagner/CELPP/2016_10_17_rdock_implementation/normal_run/tutorialVideo/tutorial_rdock_implementation/full_week_run/4-docking/5wrn/hiResHolo_1ypv_docking

>  <Rbt.Executable>
rbdock ($Id: //depot/dev/client3/rdock/2013.1/src/exe/rbdock.cxx#4 $)

>  <Rbt.Library>
libRbt.so (2013.1, Build901 2013/11/27)

>  <Rbt.Parameter_File>
/home/j5wagner/env_00/source/rDock/rDock_2013.1_src//data/scripts/dock.prm

>  <Rbt.Receptor>
/extra/banzai2/j5wagner/CELPP/2016_10_17_rdock_implementation/normal_run/tutorialVideo/tutorial_rdock_implementation/full_week_run/4-docking/5wrn/hiResHolo_1ypv_tech_prep/rDockGridGenInput.prm

>  <SCORE>
-23.6598

>  <SCORE.INTER>
-16.6903

>  <SCORE.INTER.CONST>
1

>  <SCORE.INTER.POLAR>
-2.26832

>  <SCORE.INTER.REPUL>
0

>  <SCORE.INTER.ROT>
4

>  <SCORE.INTER.VDW>
-18.378

>  <SCORE.INTER.norm>
-0.834516

>  <SCORE.INTRA>
-0.361992

>  <SCORE.INTRA.DIHEDRAL>
2.03202

>  <SCORE.INTRA.DIHEDRAL.0>
8.98184

>  <SCORE.INTRA.POLAR>
-0.767731

>  <SCORE.INTRA.POLAR.0>
0

>  <SCORE.INTRA.REPUL>
0.0586187

>  <SCORE.INTRA.REPUL.0>
0

>  <SCORE.INTRA.VDW>
0.939188

>  <SCORE.INTRA.VDW.0>
-1.60828

>  <SCORE.INTRA.norm>
-0.0180996

>  <SCORE.RESTR>
0.0207484

>  <SCORE.RESTR.CAVITY>
0.0207484

>  <SCORE.RESTR.norm>
0.00103742

>  <SCORE.SYSTEM>
-6.62828

>  <SCORE.SYSTEM.CONST>
0

>  <SCORE.SYSTEM.DIHEDRAL>
1.71726

>  <SCORE.SYSTEM.POLAR>
-2.74919

>  <SCORE.SYSTEM.REPUL>
0.52645

>  <SCORE.SYSTEM.VDW>
-0.771906

>  <SCORE.SYSTEM.norm>
-0.331414

>  <SCORE.heavy>
20

>  <SCORE.norm>
-1.18299

$$$$

  rDOCK(R)          3D
libRbt.so/2013.1/901 2013/11/27
 25 26  0  0  0  0  0  0  0  0999 V2000
   -0.3834   -1.5206   13.4803 C   0  0  0  0  0  0
    0.6271   -0.9220   12.7041 O   0  0  0  0  0  0
   -1.4988   -2.0833   12.6438 C   0  0  0  0  0  0
   -1.9554   -3.3052   13.4443 C   0  0  0  0  0  0
   -3.2946   -3.0716   14.0327 N   0  0  0  0  0  0
   -3.4318   -2.2549   15.1267 C   0  0  0  0  0  0
   -4.6779   -2.0394   15.7091 C   0  0  0  0  0  0
   -5.7923   -2.6635   15.1524 C   0  0  0  0  0  0
   -6.9728   -2.5008   15.6595 N   0  0  0  0  0  0
   -5.6374   -3.4461   14.0580 N   0  0  0  0  0  0
   -4.4209   -3.6510   13.4874 C   0  0  0  0  0  0
   -4.3681   -4.4499   12.3417 O   0  0  0  0  0  0
   -0.9977   -3.5955   14.4483 O   0  0  0  0  0  0
    0.1053   -2.7421   14.2518 C   0  0  0  0  0  0
    0.7173   -2.3682   15.6093 C   0  0  0  0  0  0
    2.0856   -2.0434   15.4663 O   0  0  0  0  0  0
    2.8654   -2.0950   16.9855 P   0  0  0  0  0  0
    2.8657   -0.7167   17.6091 O   0  0  0  0  0  0
    2.0982   -3.1947   18.0215 O   0  0  0  0  0  0
    4.4661   -2.5905   16.7565 O   0  0  0  0  0  0
    0.2355   -0.1438   12.2275 H   0  0  0  0  0  0
   -7.1445   -1.9047   16.5010 H   0  0  0  0  0  0
   -5.1821   -4.7910   11.8496 H   0  0  0  0  0  0
    2.2566   -4.0858   17.6192 H   0  0  0  0  0  0
    4.3953   -3.5213   16.4256 H   0  0  0  0  0  0
  1  2  1  0  0  0
  1  3  1  0  0  0
  3  4  1  0  0  0
  4  5  1  0  0  0
  5  6  1  0  0  0
  6  7  2  0  0  0
  7  8  1  0  0  0
  8  9  2  0  0  0
  8 10  1  0  0  0
 10 11  2  0  0  0
 11 12  1  0  0  0
  4 13  1  0  0  0
 13 14  1  0  0  0
 14 15  1  0  0  0
 15 16  1  0  0  0
 16 17  1  0  0  0
 17 18  2  0  0  0
 17 19  1  0  0  0
 17 20  1  0  0  0
 14  1  1  0  0  0
 11  5  1  0  0  0
  2 21  1  0  0  0
  9 22  1  0  0  0
 12 23  1  0  0  0
 19 24  1  0  0  0
 20 25  1  0  0  0
M  END
>  <CHROM.0>
-54.65909669,-55.01298860,66.39129316,-49.25544912,-176.61869579,-171.52760787
167.81121019,-63.52202243,-171.26888398,173.20146806

>  <CHROM.1>
63.75080842,-75.37848515,-171.83883779,-86.10047645,-162.83485435,-93.30141940
66.81366993,-65.34025658,-0.97448243,-2.53477368,15.00465483,-0.31110235
-0.11480306,-1.60799063

>  <RI>
1.20554e+07

>  <Rbt.Current_Directory>
/extra/banzai2/j5wagner/CELPP/2016_10_17_rdock_implementation/normal_run/tutorialVideo/tutorial_rdock_implementation/full_week_run/4-docking/5wrn/hiResHolo_1ypv_docking

>  <Rbt.Executable>
rbdock ($Id: //depot/dev/client3/rdock/2013.1/src/exe/rbdock.cxx#4 $)

>  <Rbt.Library>
libRbt.so (2013.1, Build901 2013/11/27)

>  <Rbt.Parameter_File>
/home/j5wagner/env_00/source/rDock/rDock_2013.1_src//data/scripts/dock.prm

>  <Rbt.Receptor>
/extra/banzai2/j5wagner/CELPP/2016_10_17_rdock_implementation/normal_run/tutorialVideo/tutorial_rdock_implementation/full_week_run/4-docking/5wrn/hiResHolo_1ypv_tech_prep/rDockGridGenInput.prm

>  <SCORE>
-23.5549

>  <SCORE.INTER>
-16.0581

>  <SCORE.INTER.CONST>
1

>  <SCORE.INTER.POLAR>
-2.55274

>  <SCORE.INTER.REPUL>
0.0143422

>  <SCORE.INTER.ROT>
4

>  <SCORE.INTER.VDW>
-16.8505

>  <SCORE.INTER.norm>
-0.802905

>  <SCORE.INTRA>
-0.620155

>  <SCORE.INTRA.DIHEDRAL>
-1.37592

>  <SCORE.INTRA.DIHEDRAL.0>
8.98184

>  <SCORE.INTRA.POLAR>
0

>  <SCORE.INTRA.POLAR.0>
0

>  <SCORE.INTRA.REPUL>
0

>  <SCORE.INTRA.REPUL.0>
0

>  <SCORE.INTRA.VDW>
0.0678039

>  <SCORE.INTRA.VDW.0>
-1.60828

>  <SCORE.INTRA.norm>
-0.0310078

>  <SCORE.RESTR>
0.524789

>  <SCORE.RESTR.CAVITY>
0.524789

>  <SCORE.RESTR.norm>
0.0262394

>  <SCORE.SYSTEM>
-7.40145

>  <SCORE.SYSTEM.CONST>
0

>  <SCORE.SYSTEM.DIHEDRAL>
1.7674

>  <SCORE.SYSTEM.POLAR>
-2.30149

>  <SCORE.SYSTEM.REPUL>
0.125003

>  <SCORE.SYSTEM.VDW>
-1.08511

>  <SCORE.SYSTEM.norm>
-0.370073

>  <SCORE.heavy>
20

>  <SCORE.norm>
-1.17775

$$$$

  rDOCK(R)          3D
libRbt.so/2013.1/901 2013/11/27
 25 26  0  0  0  0  0  0  0  0999 V2000
   -2.1357   -1.3804   16.8668 C   0  0  0  0  0  0
   -1.0669   -1.3904   17.7831 O   0  0  0  0  0  0
   -3.2247   -0.4206   17.2584 C   0  0  0  0  0  0
   -3.7628    0.0677   15.9115 C   0  0  0  0  0  0
   -5.1221   -0.4686   15.6683 N   0  0  0  0  0  0
   -6.2182    0.3430   15.8181 C   0  0  0  0  0  0
   -7.5059   -0.1464   15.6163 C   0  0  0  0  0  0
   -7.6631   -1.4807   15.2474 C   0  0  0  0  0  0
   -8.8394   -1.9867   15.0533 N   0  0  0  0  0  0
   -6.5661   -2.2574   15.0815 N   0  0  0  0  0  0
   -5.3094   -1.7766   15.2736 C   0  0  0  0  0  0
   -4.2400   -2.6476   15.0471 O   0  0  0  0  0  0
   -2.8686   -0.3147   14.8801 O   0  0  0  0  0  0
   -1.7288   -0.8792   15.4850 C   0  0  0  0  0  0
   -1.1756   -2.0025   14.5966 C   0  0  0  0  0  0
   -0.8955   -1.5187   13.2983 O   0  0  0  0  0  0
    0.4862   -0.5145   13.3289 P   0  0  0  0  0  0
    1.1524   -0.5170   11.9707 O   0  0  0  0  0  0
    0.0720    1.0701   13.7633 O   0  0  0  0  0  0
    1.5741   -1.1242   14.4713 O   0  0  0  0  0  0
   -1.4429   -1.3846   18.7020 H   0  0  0  0  0  0
   -9.7158   -1.4279   15.1656 H   0  0  0  0  0  0
   -4.3440   -3.6235   14.8063 H   0  0  0  0  0  0
   -0.1910    1.0188   14.7168 H   0  0  0  0  0  0
    1.1676   -0.9035   15.3470 H   0  0  0  0  0  0
  1  2  1  0  0  0
  1  3  1  0  0  0
  3  4  1  0  0  0
  4  5  1  0  0  0
  5  6  1  0  0  0
  6  7  2  0  0  0
  7  8  1  0  0  0
  8  9  2  0  0  0
  8 10  1  0  0  0
 10 11  2  0  0  0
 11 12  1  0  0  0
  4 13  1  0  0  0
 13 14  1  0  0  0
 14 15  1  0  0  0
 15 16  1  0  0  0
 16 17  1  0  0  0
 17 18  2  0  0  0
 17 19  1  0  0  0
 17 20  1  0  0  0
 14  1  1  0  0  0
 11  5  1  0  0  0
  2 21  1  0  0  0
  9 22  1  0  0  0
 12 23  1  0  0  0
 19 24  1  0  0  0
 20 25  1  0  0  0
M  END
>  <CHROM.0>
59.91894997,-53.16067010,68.48003803,-50.54838543,-168.46344265,-179.57282583
65.93024091,64.61791412,-171.08056061,-174.71885396

>  <CHROM.1>
43.04583525,104.09921455,176.54195771,176.01886029,72.05826416,154.09946758
69.07606168,-73.11637528,-2.87423126,-0.94558526,14.98736209,-0.22828694
0.08325937,1.57147194

>  <RI>
1.20554e+07

>  <Rbt.Current_Directory>
/extra/banzai2/j5wagner/CELPP/2016_10_17_rdock_implementation/normal_run/tutorialVideo/tutorial_rdock_implementation/full_week_run/4-docking/5wrn/hiResHolo_1ypv_docking

>  <Rbt.Executable>
rbdock ($Id: //depot/dev/client3/rdock/2013.1/src/exe/rbdock.cxx#4 $)

>  <Rbt.Library>
libRbt.so (2013.1, Build901 2013/11/27)

>  <Rbt.Parameter_File>
/home/j5wagner/env_00/source/rDock/rDock_2013.1_src//data/scripts/dock.prm

>  <Rbt.Receptor>
/extra/banzai2/j5wagner/CELPP/2016_10_17_rdock_implementation/normal_run/tutorialVideo/tutorial_rdock_implementation/full_week_run/4-docking/5wrn/hiResHolo_1ypv_tech_prep/rDockGridGenInput.prm

>  <SCORE>
-23.4223

>  <SCORE.INTER>
-15.6331

>  <SCORE.INTER.CONST>
1

>  <SCORE.INTER.POLAR>
-2.73342

>  <SCORE.INTER.REPUL>
0

>  <SCORE.INTER.ROT>
4

>  <SCORE.INTER.VDW>
-15.7395

>  <SCORE.INTER.norm>
-0.781656

>  <SCORE.INTRA>
-1.9603

>  <SCORE.INTRA.DIHEDRAL>
-3.18357

>  <SCORE.INTRA.DIHEDRAL.0>
8.98184

>  <SCORE.INTRA.POLAR>
0

>  <SCORE.INTRA.POLAR.0>
0

>  <SCORE.INTRA.REPUL>
0

>  <SCORE.INTRA.REPUL.0>
0

>  <SCORE.INTRA.VDW>
-0.368517

>  <SCORE.INTRA.VDW.0>
-1.60828

>  <SCORE.INTRA.norm>
-0.098015

>  <SCORE.RESTR>
1.45362

>  <SCORE.RESTR.CAVITY>
1.45362

>  <SCORE.RESTR.norm>
0.0726811

>  <SCORE.SYSTEM>
-7.28246

>  <SCORE.SYSTEM.CONST>
0

>  <SCORE.SYSTEM.DIHEDRAL>
1.44125

>  <SCORE.SYSTEM.POLAR>
-2.67817

>  <SCORE.SYSTEM.REPUL>
0.542851

>  <SCORE.SYSTEM.VDW>
-1.61155

>  <SCORE.SYSTEM.norm>
-0.364123

>  <SCORE.heavy>
20

>  <SCORE.norm>
-1.17111

$$$$

  rDOCK(R)          3D
libRbt.so/2013.1/901 2013/11/27
 25 26  0  0  0  0  0  0  0  0999 V2000
   -1.5491   -1.8708   13.2313 C   0  0  0  0  0  0
   -0.6461   -1.8276   12.1521 O   0  0  0  0  0  0
   -2.8532   -2.5254   12.8689 C   0  0  0  0  0  0
   -3.2743   -3.2123   14.1701 C   0  0  0  0  0  0
   -4.4484   -2.5306   14.7626 N   0  0  0  0  0  0
   -5.4896   -3.2685   15.2667 C   0  0  0  0  0  0
   -6.6124   -2.6482   15.8078 C   0  0  0  0  0  0
   -6.6568   -1.2559   15.8379 C   0  0  0  0  0  0
   -7.6807   -0.6299   16.3250 N   0  0  0  0  0  0
   -5.6075   -0.5475   15.3570 N   0  0  0  0  0  0
   -4.5097   -1.1548   14.8341 C   0  0  0  0  0  0
   -3.4652   -0.3379   14.3921 O   0  0  0  0  0  0
   -2.1803   -3.2255   15.0714 O   0  0  0  0  0  0
   -1.0521   -2.7324   14.3875 C   0  0  0  0  0  0
   -0.1615   -1.9460   15.3600 C   0  0  0  0  0  0
    0.6698   -2.8227   16.0939 O   0  0  0  0  0  0
    2.0902   -2.0122   16.5880 P   0  0  0  0  0  0
    2.5851   -1.1180   15.4726 O   0  0  0  0  0  0
    1.8064   -1.0903   17.9811 O   0  0  0  0  0  0
    3.2797   -3.1642   16.9320 O   0  0  0  0  0  0
   -0.5309   -2.7503   11.8039 H   0  0  0  0  0  0
   -8.5132   -1.1311   16.7106 H   0  0  0  0  0  0
   -3.4352    0.6640   14.5199 H   0  0  0  0  0  0
    2.6737   -0.6601   18.1902 H   0  0  0  0  0  0
    2.8044   -3.8722   17.4356 H   0  0  0  0  0  0
  1  2  1  0  0  0
  1  3  1  0  0  0
  3  4  1  0  0  0
  4  5  1  0  0  0
  5  6  1  0  0  0
  6  7  2  0  0  0
  7  8  1  0  0  0
  8  9  2  0  0  0
  8 10  1  0  0  0
 10 11  2  0  0  0
 11 12  1  0  0  0
  4 13  1  0  0  0
 13 14  1  0  0  0
 14 15  1  0  0  0
 15 16  1  0  0  0
 16 17  1  0  0  0
 17 18  2  0  0  0
 17 19  1  0  0  0
 17 20  1  0  0  0
 14  1  1  0  0  0
 11  5  1  0  0  0
  2 21  1  0  0  0
  9 22  1  0  0  0
 12 23  1  0  0  0
 19 24  1  0  0  0
 20 25  1  0  0  0
M  END
>  <CHROM.0>
-177.03890067,-164.26517558,66.44716967,-48.05025896,178.08161799,7.41538645
68.35380175,-178.47170360,-177.29319268,171.13005578

>  <CHROM.1>
-54.42788616,136.36387693,-173.15982808,-157.82422071,153.61473194,-40.24963154
-179.87633162,-42.82993523,-1.85028183,-1.98534968,15.25406108,-0.12486280
0.07800204,-1.75380081

>  <RI>
1.20554e+07

>  <Rbt.Current_Directory>
/extra/banzai2/j5wagner/CELPP/2016_10_17_rdock_implementation/normal_run/tutorialVideo/tutorial_rdock_implementation/full_week_run/4-docking/5wrn/hiResHolo_1ypv_docking

>  <Rbt.Executable>
rbdock ($Id: //depot/dev/client3/rdock/2013.1/src/exe/rbdock.cxx#4 $)

>  <Rbt.Library>
libRbt.so (2013.1, Build901 2013/11/27)

>  <Rbt.Parameter_File>
/home/j5wagner/env_00/source/rDock/rDock_2013.1_src//data/scripts/dock.prm

>  <Rbt.Receptor>
/extra/banzai2/j5wagner/CELPP/2016_10_17_rdock_implementation/normal_run/tutorialVideo/tutorial_rdock_implementation/full_week_run/4-docking/5wrn/hiResHolo_1ypv_tech_prep/rDockGridGenInput.prm

>  <SCORE>
-23.1502

>  <SCORE.INTER>
-22.6952

>  <SCORE.INTER.CONST>
1

>  <SCORE.INTER.POLAR>
-3.98213

>  <SCORE.INTER.REPUL>
0

>  <SCORE.INTER.ROT>
4

>  <SCORE.INTER.VDW>
-18.556

>  <SCORE.INTER.norm>
-1.13476

>  <SCORE.INTRA>
1.28229

>  <SCORE.INTRA.DIHEDRAL>
-0.649813

>  <SCORE.INTRA.DIHEDRAL.0>
8.98184

>  <SCORE.INTRA.POLAR>
0

>  <SCORE.INTRA.POLAR.0>
0

>  <SCORE.INTRA.REPUL>
0

>  <SCORE.INTRA.REPUL.0>
0

>  <SCORE.INTRA.VDW>
1.60719

>  <SCORE.INTRA.VDW.0>
-1.60828

>  <SCORE.INTRA.norm>
0.0641143

>  <SCORE.RESTR>
1.13964

>  <SCORE.RESTR.CAVITY>
1.13964

>  <SCORE.RESTR.norm>
0.0569818

>  <SCORE.SYSTEM>
-2.87686

>  <SCORE.SYSTEM.CONST>
0

>  <SCORE.SYSTEM.DIHEDRAL>
2.3014

>  <SCORE.SYSTEM.POLAR>
-1.19454

>  <SCORE.SYSTEM.REPUL>
0.108156

>  <SCORE.SYSTEM.VDW>
-0.506902

>  <SCORE.SYSTEM.norm>
-0.143843

>  <SCORE.heavy>
20

>  <SCORE.norm>
-1.15751

$$$$

  rDOCK(R)          3D
libRbt.so/2013.1/901 2013/11/27
 25 26  0  0  0  0  0  0  0  0999 V2000
   -3.8518   -2.9340   13.9690 C   0  0  0  0  0  0
   -4.7671   -3.7057   13.2283 O   0  0  0  0  0  0
   -2.4339   -3.1113   13.5015 C   0  0  0  0  0  0
   -1.8095   -1.7356   13.7459 C   0  0  0  0  0  0
   -0.8358   -1.7961   14.8606 N   0  0  0  0  0  0
    0.5107   -1.8107   14.5971 C   0  0  0  0  0  0
    1.4425   -1.8897   15.6285 C   0  0  0  0  0  0
    0.9817   -1.9441   16.9423 C   0  0  0  0  0  0
    1.8066   -2.0243   17.9375 N   0  0  0  0  0  0
   -0.3508   -1.9039   17.1807 N   0  0  0  0  0  0
   -1.2590   -1.8213   16.1728 C   0  0  0  0  0  0
   -2.6109   -1.7538   16.5217 O   0  0  0  0  0  0
   -2.8346   -0.7931   14.0111 O   0  0  0  0  0  0
   -4.0723   -1.4335   13.8073 C   0  0  0  0  0  0
   -5.1070   -0.8856   14.8005 C   0  0  0  0  0  0
   -6.2561   -1.7084   14.8273 O   0  0  0  0  0  0
   -7.5392   -0.9032   15.6171 P   0  0  0  0  0  0
   -8.4409   -0.2481   14.5941 O   0  0  0  0  0  0
   -8.4361   -1.9821   16.5672 O   0  0  0  0  0  0
   -6.8917    0.2948   16.6200 O   0  0  0  0  0  0
   -5.6698   -3.3053   13.3324 H   0  0  0  0  0  0
    2.8433   -2.0551   17.8057 H   0  0  0  0  0  0
   -2.9608   -1.2942   17.3508 H   0  0  0  0  0  0
   -8.8203   -2.6345   15.9285 H   0  0  0  0  0  0
   -6.5229    0.9706   15.9970 H   0  0  0  0  0  0
  1  2  1  0  0  0
  1  3  1  0  0  0
  3  4  1  0  0  0
  4  5  1  0  0  0
  5  6  1  0  0  0
  6  7  2  0  0  0
  7  8  1  0  0  0
  8  9  2  0  0  0
  8 10  1  0  0  0
 10 11  2  0  0  0
 11 12  1  0  0  0
  4 13  1  0  0  0
 13 14  1  0  0  0
 14 15  1  0  0  0
 15 16  1  0  0  0
 16 17  1  0  0  0
 17 18  2  0  0  0
 17 19  1  0  0  0
 17 20  1  0  0  0
 14  1  1  0  0  0
 11  5  1  0  0  0
  2 21  1  0  0  0
  9 22  1  0  0  0
 12 23  1  0  0  0
 19 24  1  0  0  0
 20 25  1  0  0  0
M  END
>  <CHROM.0>
179.00484430,-56.93607463,179.13049896,-161.90522425,174.87570547,-178.27793399
65.55427424,179.34774061,178.85224037,-179.93706363

>  <CHROM.1>
-158.72368895,103.13063277,-145.84989599,-46.94760881,-165.88277031,96.68262602
-62.86548808,68.90445325,-3.58174624,-1.63995446,15.28476161,-3.10336021
-0.13645283,1.19799537

>  <RI>
1.20554e+07

>  <Rbt.Current_Directory>
/extra/banzai2/j5wagner/CELPP/2016_10_17_rdock_implementation/normal_run/tutorialVideo/tutorial_rdock_implementation/full_week_run/4-docking/5wrn/hiResHolo_1ypv_docking

>  <Rbt.Executable>
rbdock ($Id: //depot/dev/client3/rdock/2013.1/src/exe/rbdock.cxx#4 $)

>  <Rbt.Library>
libRbt.so (2013.1, Build901 2013/11/27)

>  <Rbt.Parameter_File>
/home/j5wagner/env_00/source/rDock/rDock_2013.1_src//data/scripts/dock.prm

>  <Rbt.Receptor>
/extra/banzai2/j5wagner/CELPP/2016_10_17_rdock_implementation/normal_run/tutorialVideo/tutorial_rdock_implementation/full_week_run/4-docking/5wrn/hiResHolo_1ypv_tech_prep/rDockGridGenInput.prm

>  <SCORE>
-22.7387

>  <SCORE.INTER>
-13.7925

>  <SCORE.INTER.CONST>
1

>  <SCORE.INTER.POLAR>
-1.37423

>  <SCORE.INTER.REPUL>
0.00680255

>  <SCORE.INTER.ROT>
4

>  <SCORE.INTER.VDW>
-18.5541

>  <SCORE.INTER.norm>
-0.689623

>  <SCORE.INTRA>
-0.862551

>  <SCORE.INTRA.DIHEDRAL>
0.251343

>  <SCORE.INTRA.DIHEDRAL.0>
8.98184

>  <SCORE.INTRA.POLAR>
-0.350898

>  <SCORE.INTRA.POLAR.0>
0

>  <SCORE.INTRA.REPUL>
0

>  <SCORE.INTRA.REPUL.0>
0

>  <SCORE.INTRA.VDW>
0.204831

>  <SCORE.INTRA.VDW.0>
-1.60828

>  <SCORE.INTRA.norm>
-0.0431276

>  <SCORE.RESTR>
0

>  <SCORE.RESTR.CAVITY>
0

>  <SCORE.RESTR.norm>
0

>  <SCORE.SYSTEM>
-8.08367

>  <SCORE.SYSTEM.CONST>
0

>  <SCORE.SYSTEM.DIHEDRAL>
1.01006

>  <SCORE.SYSTEM.POLAR>
-2.34962

>  <SCORE.SYSTEM.REPUL>
0.0750222

>  <SCORE.SYSTEM.VDW>
-0.975116

>  <SCORE.SYSTEM.norm>
-0.404184

>  <SCORE.heavy>
20

>  <SCORE.norm>
-1.13693

$$$$

  rDOCK(R)          3D
libRbt.so/2013.1/901 2013/11/27
 25 26  0  0  0  0  0  0  0  0999 V2000
   -3.0369   -0.9679   14.3121 C   0  0  0  0  0  0
   -2.4513    0.1147   14.9956 O   0  0  0  0  0  0
   -2.0616   -1.6851   13.4205 C   0  0  0  0  0  0
   -2.5384   -3.1382   13.4765 C   0  0  0  0  0  0
   -3.1292   -3.5428   12.1797 N   0  0  0  0  0  0
   -2.3288   -3.6856   11.0744 C   0  0  0  0  0  0
   -2.8664   -4.0433    9.8410 C   0  0  0  0  0  0
   -4.2389   -4.2651    9.7496 C   0  0  0  0  0  0
   -4.7896   -4.5941    8.6245 N   0  0  0  0  0  0
   -5.0066   -4.1423   10.8585 N   0  0  0  0  0  0
   -4.4793   -3.7983   12.0631 C   0  0  0  0  0  0
   -5.3486   -3.7277   13.1553 O   0  0  0  0  0  0
   -3.4709   -3.2879   14.5336 O   0  0  0  0  0  0
   -3.5110   -2.0748   15.2481 C   0  0  0  0  0  0
   -4.9344   -1.8287   15.7684 C   0  0  0  0  0  0
   -5.8119   -1.5363   14.6995 O   0  0  0  0  0  0
   -7.4146   -1.3964   15.2742 P   0  0  0  0  0  0
   -7.4300   -0.6063   16.5642 O   0  0  0  0  0  0
   -8.4048   -0.6409   14.1253 O   0  0  0  0  0  0
   -8.0191   -2.9467   15.5769 O   0  0  0  0  0  0
   -2.1195    0.7659   14.3235 H   0  0  0  0  0  0
   -4.2400   -4.7043    7.7420 H   0  0  0  0  0  0
   -6.0113   -2.9798   13.3058 H   0  0  0  0  0  0
   -9.2499   -0.4401   14.6012 H   0  0  0  0  0  0
   -8.8082   -2.7990   16.1568 H   0  0  0  0  0  0
  1  2  1  0  0  0
  1  3  1  0  0  0
  3  4  1  0  0  0
  4  5  1  0  0  0
  5  6  1  0  0  0
  6  7  2  0  0  0
  7  8  1  0  0  0
  8  9  2  0  0  0
  8 10  1  0  0  0
 10 11  2  0  0  0
 11 12  1  0  0  0
  4 13  1  0  0  0
 13 14  1  0  0  0
 14 15  1  0  0  0
 15 16  1  0  0  0
 16 17  1  0  0  0
 17 18  2  0  0  0
 17 19  1  0  0  0
 17 20  1  0  0  0
 14  1  1  0  0  0
 11  5  1  0  0  0
  2 21  1  0  0  0
  9 22  1  0  0  0
 12 23  1  0  0  0
 19 24  1  0  0  0
 20 25  1  0  0  0
M  END
>  <CHROM.0>
162.90277885,-55.20584441,67.97907528,-47.99815251,-165.61542052,10.18983266
-60.97807528,62.23192003,-165.18020810,20.60446782

>  <CHROM.1>
60.86868127,69.13487895,105.98707468,50.11709022,175.18053253,42.84354104
-169.03253666,162.83389345,-4.83435841,-2.45701472,13.49479635,-2.12770183
-0.07953108,-2.11941249

>  <RI>
1.20554e+07

>  <Rbt.Current_Directory>
/extra/banzai2/j5wagner/CELPP/2016_10_17_rdock_implementation/normal_run/tutorialVideo/tutorial_rdock_implementation/full_week_run/4-docking/5wrn/hiResHolo_1ypv_docking

>  <Rbt.Executable>
rbdock ($Id: //depot/dev/client3/rdock/2013.1/src/exe/rbdock.cxx#4 $)

>  <Rbt.Library>
libRbt.so (2013.1, Build901 2013/11/27)

>  <Rbt.Parameter_File>
/home/j5wagner/env_00/source/rDock/rDock_2013.1_src//data/scripts/dock.prm

>  <Rbt.Receptor>
/extra/banzai2/j5wagner/CELPP/2016_10_17_rdock_implementation/normal_run/tutorialVideo/tutorial_rdock_implementation/full_week_run/4-docking/5wrn/hiResHolo_1ypv_tech_prep/rDockGridGenInput.prm

>  <SCORE>
-21.4433

>  <SCORE.INTER>
-17.1172

>  <SCORE.INTER.CONST>
1

>  <SCORE.INTER.POLAR>
-2.91162

>  <SCORE.INTER.REPUL>
0.00678581

>  <SCORE.INTER.ROT>
4

>  <SCORE.INTER.VDW>
-16.6516

>  <SCORE.INTER.norm>
-0.855859

>  <SCORE.INTRA>
-0.926578

>  <SCORE.INTRA.DIHEDRAL>
-0.573939

>  <SCORE.INTRA.DIHEDRAL.0>
8.98184

>  <SCORE.INTRA.POLAR>
-0.492099

>  <SCORE.INTRA.POLAR.0>
0

>  <SCORE.INTRA.REPUL>
0

>  <SCORE.INTRA.REPUL.0>
0

>  <SCORE.INTRA.VDW>
1.03353

>  <SCORE.INTRA.VDW.0>
-1.60828

>  <SCORE.INTRA.norm>
-0.0463289

>  <SCORE.RESTR>
0.32304

>  <SCORE.RESTR.CAVITY>
0.32304

>  <SCORE.RESTR.norm>
0.016152

>  <SCORE.SYSTEM>
-3.72254

>  <SCORE.SYSTEM.CONST>
0

>  <SCORE.SYSTEM.DIHEDRAL>
2.83974

>  <SCORE.SYSTEM.POLAR>
-1.72408

>  <SCORE.SYSTEM.REPUL>
0.642301

>  <SCORE.SYSTEM.VDW>
-2.49203

>  <SCORE.SYSTEM.norm>
-0.186127

>  <SCORE.heavy>
20

>  <SCORE.norm>
-1.07216

$$$$

  rDOCK(R)          3D
libRbt.so/2013.1/901 2013/11/27
 25 26  0  0  0  0  0  0  0  0999 V2000
   -3.2340   -0.3670   15.5273 C   0  0  0  0  0  0
   -2.7313    0.4767   16.5359 O   0  0  0  0  0  0
   -2.2875   -1.4828   15.1811 C   0  0  0  0  0  0
   -3.2242   -2.6360   14.8141 C   0  0  0  0  0  0
   -3.1638   -2.9136   13.3603 N   0  0  0  0  0  0
   -2.0234   -2.6281   12.6528 C   0  0  0  0  0  0
   -1.9528   -2.8603   11.2819 C   0  0  0  0  0  0
   -3.0640   -3.4005   10.6379 C   0  0  0  0  0  0
   -3.0522   -3.6301    9.3634 N   0  0  0  0  0  0
   -4.1707   -3.6974   11.3599 N   0  0  0  0  0  0
   -4.2359   -3.4752   12.6993 C   0  0  0  0  0  0
   -5.4102   -3.8439   13.3616 O   0  0  0  0  0  0
   -4.5444   -2.3187   15.2211 O   0  0  0  0  0  0
   -4.4929   -1.1159   15.9522 C   0  0  0  0  0  0
   -5.7696   -0.3019   15.6979 C   0  0  0  0  0  0
   -6.5670   -0.9219   14.7090 O   0  0  0  0  0  0
   -7.5947   -2.0843   15.4239 P   0  0  0  0  0  0
   -8.7545   -2.3816   14.4992 O   0  0  0  0  0  0
   -6.7482   -3.5127   15.7620 O   0  0  0  0  0  0
   -8.1994   -1.4553   16.8726 O   0  0  0  0  0  0
   -2.0648    1.0891   16.1277 H   0  0  0  0  0  0
   -2.2219   -3.4213    8.7635 H   0  0  0  0  0  0
   -5.6208   -3.6031   14.3201 H   0  0  0  0  0  0
   -6.9876   -3.7430   16.6952 H   0  0  0  0  0  0
   -8.8216   -0.7371   16.5934 H   0  0  0  0  0  0
  1  2  1  0  0  0
  1  3  1  0  0  0
  3  4  1  0  0  0
  4  5  1  0  0  0
  5  6  1  0  0  0
  6  7  2  0  0  0
  7  8  1  0  0  0
  8  9  2  0  0  0
  8 10  1  0  0  0
 10 11  2  0  0  0
 11 12  1  0  0  0
  4 13  1  0  0  0
 13 14  1  0  0  0
 14 15  1  0  0  0
 15 16  1  0  0  0
 16 17  1  0  0  0
 17 18  2  0  0  0
 17 19  1  0  0  0
 17 20  1  0  0  0
 14  1  1  0  0  0
 11  5  1  0  0  0
  2 21  1  0  0  0
  9 22  1  0  0  0
 12 23  1  0  0  0
 19 24  1  0  0  0
 20 25  1  0  0  0
M  END
>  <CHROM.0>
57.28991910,-42.06752560,68.83047057,-169.19715821,11.59976086,-168.30547499
-179.85549803,-179.41036240,-173.64563445,-173.90577126

>  <CHROM.1>
78.09725751,27.59592920,9.91056176,114.00693047,86.64415368,159.91185149
132.07569357,69.93290035,-4.84678550,-2.19565751,14.21637724,-2.34421226
-0.23969278,-2.13713466

>  <RI>
1.20554e+07

>  <Rbt.Current_Directory>
/extra/banzai2/j5wagner/CELPP/2016_10_17_rdock_implementation/normal_run/tutorialVideo/tutorial_rdock_implementation/full_week_run/4-docking/5wrn/hiResHolo_1ypv_docking

>  <Rbt.Executable>
rbdock ($Id: //depot/dev/client3/rdock/2013.1/src/exe/rbdock.cxx#4 $)

>  <Rbt.Library>
libRbt.so (2013.1, Build901 2013/11/27)

>  <Rbt.Parameter_File>
/home/j5wagner/env_00/source/rDock/rDock_2013.1_src//data/scripts/dock.prm

>  <Rbt.Receptor>
/extra/banzai2/j5wagner/CELPP/2016_10_17_rdock_implementation/normal_run/tutorialVideo/tutorial_rdock_implementation/full_week_run/4-docking/5wrn/hiResHolo_1ypv_tech_prep/rDockGridGenInput.prm

>  <SCORE>
-21.3932

>  <SCORE.INTER>
-14.4106

>  <SCORE.INTER.CONST>
1

>  <SCORE.INTER.POLAR>
-1.62824

>  <SCORE.INTER.REPUL>
0.253044

>  <SCORE.INTER.ROT>
4

>  <SCORE.INTER.VDW>
-19.5398

>  <SCORE.INTER.norm>
-0.720529

>  <SCORE.INTRA>
-0.223358

>  <SCORE.INTRA.DIHEDRAL>
6.13071

>  <SCORE.INTRA.DIHEDRAL.0>
8.98184

>  <SCORE.INTRA.POLAR>
-1.38974

>  <SCORE.INTRA.POLAR.0>
0

>  <SCORE.INTRA.REPUL>
0

>  <SCORE.INTRA.REPUL.0>
0

>  <SCORE.INTRA.VDW>
1.43641

>  <SCORE.INTRA.VDW.0>
-1.60828

>  <SCORE.INTRA.norm>
-0.0111679

>  <SCORE.RESTR>
0.830252

>  <SCORE.RESTR.CAVITY>
0.830252

>  <SCORE.RESTR.norm>
0.0415126

>  <SCORE.SYSTEM>
-7.58956

>  <SCORE.SYSTEM.CONST>
0

>  <SCORE.SYSTEM.DIHEDRAL>
2.67543

>  <SCORE.SYSTEM.POLAR>
-2.32735

>  <SCORE.SYSTEM.REPUL>
0.0575722

>  <SCORE.SYSTEM.VDW>
-1.30214

>  <SCORE.SYSTEM.norm>
-0.379478

>  <SCORE.heavy>
20

>  <SCORE.norm>
-1.06966

$$$$

  rDOCK(R)          3D
libRbt.so/2013.1/901 2013/11/27
 25 26  0  0  0  0  0  0  0  0999 V2000
   -4.1607   -3.7559   11.1021 C   0  0  0  0  0  0
   -4.4174   -4.4816    9.9233 O   0  0  0  0  0  0
   -5.1766   -4.0217   12.1782 C   0  0  0  0  0  0
   -4.3605   -3.9049   13.4675 C   0  0  0  0  0  0
   -4.7424   -2.6855   14.2169 N   0  0  0  0  0  0
   -4.2857   -1.4573   13.8099 C   0  0  0  0  0  0
   -4.6141   -0.3011   14.5125 C   0  0  0  0  0  0
   -5.4281   -0.4119   15.6379 C   0  0  0  0  0  0
   -5.7580    0.6319   16.3299 N   0  0  0  0  0  0
   -5.8874   -1.6311   16.0076 N   0  0  0  0  0  0
   -5.5703   -2.7582   15.3173 C   0  0  0  0  0  0
   -6.1190   -3.9654   15.7592 O   0  0  0  0  0  0
   -2.9786   -3.9009   13.1518 O   0  0  0  0  0  0
   -2.8506   -4.1561   11.7726 C   0  0  0  0  0  0
   -1.6487   -3.3815   11.2134 C   0  0  0  0  0  0
   -1.6486   -2.0506   11.6898 O   0  0  0  0  0  0
   -0.6524   -1.9193   13.0714 P   0  0  0  0  0  0
   -1.4204   -1.2622   14.1970 O   0  0  0  0  0  0
   -0.0999   -3.4432   13.5651 O   0  0  0  0  0  0
    0.6832   -0.9556   12.6870 O   0  0  0  0  0  0
   -3.7146   -4.2571    9.2588 H   0  0  0  0  0  0
   -5.4319    1.5942   16.0837 H   0  0  0  0  0  0
   -6.5821   -4.0864   16.6491 H   0  0  0  0  0  0
   -0.9149   -3.9984   13.6579 H   0  0  0  0  0  0
    0.3026   -0.0579   12.5134 H   0  0  0  0  0  0
  1  2  1  0  0  0
  1  3  1  0  0  0
  3  4  1  0  0  0
  4  5  1  0  0  0
  5  6  1  0  0  0
  6  7  2  0  0  0
  7  8  1  0  0  0
  8  9  2  0  0  0
  8 10  1  0  0  0
 10 11  2  0  0  0
 11 12  1  0  0  0
  4 13  1  0  0  0
 13 14  1  0  0  0
 14 15  1  0  0  0
 15 16  1  0  0  0
 16 17  1  0  0  0
 17 18  2  0  0  0
 17 19  1  0  0  0
 17 20  1  0  0  0
 14  1  1  0  0  0
 11  5  1  0  0  0
  2 21  1  0  0  0
  9 22  1  0  0  0
 12 23  1  0  0  0
 19 24  1  0  0  0
 20 25  1  0  0  0
M  END
>  <CHROM.0>
-52.91187137,-54.85848227,-65.26384376,-46.86130191,-174.25565985,15.58271323
173.60535638,-65.58137764,12.09085709,34.50670964

>  <CHROM.1>
179.80561459,-77.14659739,168.03753166,74.40876326,95.16744645,-127.91719184
-53.11291342,65.69272764,-3.30068288,-2.47898730,13.42105696,0.58050836,-0.31729121
-2.32153003

>  <RI>
1.20554e+07

>  <Rbt.Current_Directory>
/extra/banzai2/j5wagner/CELPP/2016_10_17_rdock_implementation/normal_run/tutorialVideo/tutorial_rdock_implementation/full_week_run/4-docking/5wrn/hiResHolo_1ypv_docking

>  <Rbt.Executable>
rbdock ($Id: //depot/dev/client3/rdock/2013.1/src/exe/rbdock.cxx#4 $)

>  <Rbt.Library>
libRbt.so (2013.1, Build901 2013/11/27)

>  <Rbt.Parameter_File>
/home/j5wagner/env_00/source/rDock/rDock_2013.1_src//data/scripts/dock.prm

>  <Rbt.Receptor>
/extra/banzai2/j5wagner/CELPP/2016_10_17_rdock_implementation/normal_run/tutorialVideo/tutorial_rdock_implementation/full_week_run/4-docking/5wrn/hiResHolo_1ypv_tech_prep/rDockGridGenInput.prm

>  <SCORE>
-20.7772

>  <SCORE.INTER>
-15.5958

>  <SCORE.INTER.CONST>
1

>  <SCORE.INTER.POLAR>
-3.36572

>  <SCORE.INTER.REPUL>
0

>  <SCORE.INTER.ROT>
4

>  <SCORE.INTER.VDW>
-13.5523

>  <SCORE.INTER.norm>
-0.779789

>  <SCORE.INTRA>
-2.98922

>  <SCORE.INTRA.DIHEDRAL>
1.48613

>  <SCORE.INTRA.DIHEDRAL.0>
8.98184

>  <SCORE.INTRA.POLAR>
-0.77231

>  <SCORE.INTRA.POLAR.0>
0

>  <SCORE.INTRA.REPUL>
0

>  <SCORE.INTRA.REPUL.0>
0

>  <SCORE.INTRA.VDW>
-1.10643

>  <SCORE.INTRA.VDW.0>
-1.60828

>  <SCORE.INTRA.norm>
-0.149461

>  <SCORE.RESTR>
1.09635

>  <SCORE.RESTR.CAVITY>
1.09635

>  <SCORE.RESTR.norm>
0.0548177

>  <SCORE.SYSTEM>
-3.28854

>  <SCORE.SYSTEM.CONST>
0

>  <SCORE.SYSTEM.DIHEDRAL>
3.29558

>  <SCORE.SYSTEM.POLAR>
-1.3364

>  <SCORE.SYSTEM.REPUL>
0.194602

>  <SCORE.SYSTEM.VDW>
-1.36558

>  <SCORE.SYSTEM.norm>
-0.164427

>  <SCORE.heavy>
20

>  <SCORE.norm>
-1.03886

$$$$

  rDOCK(R)          3D
libRbt.so/2013.1/901 2013/11/27
 25 26  0  0  0  0  0  0  0  0999 V2000
   -0.3608   -1.4253   13.8883 C   0  0  0  0  0  0
    0.6832   -1.4129   12.9439 O   0  0  0  0  0  0
   -1.7073   -1.6533   13.2595 C   0  0  0  0  0  0
   -2.4662   -2.4392   14.3311 C   0  0  0  0  0  0
   -3.5337   -1.6052   14.9306 N   0  0  0  0  0  0
   -3.2259   -0.3877   15.4833 C   0  0  0  0  0  0
   -4.2099    0.4022   16.0717 C   0  0  0  0  0  0
   -5.5231   -0.0634   16.0810 C   0  0  0  0  0  0
   -6.4746    0.6300   16.6208 N   0  0  0  0  0  0
   -5.8085   -1.2570   15.5082 N   0  0  0  0  0  0
   -4.8475   -2.0243   14.9294 C   0  0  0  0  0  0
   -5.2463   -3.2259   14.3370 O   0  0  0  0  0  0
   -1.5546   -2.8920   15.3177 O   0  0  0  0  0  0
   -0.2534   -2.5811   14.8774 C   0  0  0  0  0  0
    0.6313   -2.2361   16.0839 C   0  0  0  0  0  0
    1.9749   -2.0588   15.6818 O   0  0  0  0  0  0
    2.9936   -1.9756   17.0508 P   0  0  0  0  0  0
    4.4174   -2.2937   16.6508 O   0  0  0  0  0  0
    2.9257   -0.4390   17.7619 O   0  0  0  0  0  0
    2.4758   -3.1211   18.1821 O   0  0  0  0  0  0
    0.6306   -0.5644   12.4308 H   0  0  0  0  0  0
   -6.3059    1.5576   17.0724 H   0  0  0  0  0  0
   -4.6453   -3.8045   13.7669 H   0  0  0  0  0  0
    1.9621   -0.2602   17.9047 H   0  0  0  0  0  0
    2.5123   -3.9847   17.6987 H   0  0  0  0  0  0
  1  2  1  0  0  0
  1  3  1  0  0  0
  3  4  1  0  0  0
  4  5  1  0  0  0
  5  6  1  0  0  0
  6  7  2  0  0  0
  7  8  1  0  0  0
  8  9  2  0  0  0
  8 10  1  0  0  0
 10 11  2  0  0  0
 11 12  1  0  0  0
  4 13  1  0  0  0
 13 14  1  0  0  0
 14 15  1  0  0  0
 15 16  1  0  0  0
 16 17  1  0  0  0
 17 18  2  0  0  0
 17 19  1  0  0  0
 17 20  1  0  0  0
 14  1  1  0  0  0
 11  5  1  0  0  0
  2 21  1  0  0  0
  9 22  1  0  0  0
 12 23  1  0  0  0
 19 24  1  0  0  0
 20 25  1  0  0  0
M  END
>  <CHROM.0>
62.96130900,-55.59105896,-66.72516072,-47.48021630,178.47659871,-164.21045639
66.31220636,62.46466770,-176.76391095,162.09442071

>  <CHROM.1>
73.07048627,-55.32307416,-8.70539476,-66.41162999,-169.12378852,159.37773172
52.41663331,57.47738466,-1.04315588,-1.66020397,15.61413415,-0.10799598,0.18624457
-2.02053531

>  <RI>
1.20554e+07

>  <Rbt.Current_Directory>
/extra/banzai2/j5wagner/CELPP/2016_10_17_rdock_implementation/normal_run/tutorialVideo/tutorial_rdock_implementation/full_week_run/4-docking/5wrn/hiResHolo_1ypv_docking

>  <Rbt.Executable>
rbdock ($Id: //depot/dev/client3/rdock/2013.1/src/exe/rbdock.cxx#4 $)

>  <Rbt.Library>
libRbt.so (2013.1, Build901 2013/11/27)

>  <Rbt.Parameter_File>
/home/j5wagner/env_00/source/rDock/rDock_2013.1_src//data/scripts/dock.prm

>  <Rbt.Receptor>
/extra/banzai2/j5wagner/CELPP/2016_10_17_rdock_implementation/normal_run/tutorialVideo/tutorial_rdock_implementation/full_week_run/4-docking/5wrn/hiResHolo_1ypv_tech_prep/rDockGridGenInput.prm

>  <SCORE>
-20.7452

>  <SCORE.INTER>
-13.0207

>  <SCORE.INTER.CONST>
1

>  <SCORE.INTER.POLAR>
-2.32765

>  <SCORE.INTER.REPUL>
0

>  <SCORE.INTER.ROT>
4

>  <SCORE.INTER.VDW>
-14.5067

>  <SCORE.INTER.norm>
-0.651037

>  <SCORE.INTRA>
-1.84804

>  <SCORE.INTRA.DIHEDRAL>
-4.23315

>  <SCORE.INTRA.DIHEDRAL.0>
8.98184

>  <SCORE.INTRA.POLAR>
0

>  <SCORE.INTRA.POLAR.0>
0

>  <SCORE.INTRA.REPUL>
0

>  <SCORE.INTRA.REPUL.0>
0

>  <SCORE.INTRA.VDW>
0.268534

>  <SCORE.INTRA.VDW.0>
-1.60828

>  <SCORE.INTRA.norm>
-0.092402

>  <SCORE.RESTR>
0.606286

>  <SCORE.RESTR.CAVITY>
0.606286

>  <SCORE.RESTR.norm>
0.0303143

>  <SCORE.SYSTEM>
-6.48275

>  <SCORE.SYSTEM.CONST>
0

>  <SCORE.SYSTEM.DIHEDRAL>
1.79971

>  <SCORE.SYSTEM.POLAR>
-2.67367

>  <SCORE.SYSTEM.REPUL>
0.560337

>  <SCORE.SYSTEM.VDW>
-1.09381

>  <SCORE.SYSTEM.norm>
-0.324137

>  <SCORE.heavy>
20

>  <SCORE.norm>
-1.03726

$$$$

  rDOCK(R)          3D
libRbt.so/2013.1/901 2013/11/27
 25 26  0  0  0  0  0  0  0  0999 V2000
   -3.8992   -3.2622   14.0867 C   0  0  0  0  0  0
   -4.8912   -3.9313   13.3450 O   0  0  0  0  0  0
   -2.7108   -2.8784   13.2495 C   0  0  0  0  0  0
   -2.2418   -1.5681   13.8861 C   0  0  0  0  0  0
   -0.9521   -1.7624   14.5883 N   0  0  0  0  0  0
   -0.9333   -2.2689   15.8634 C   0  0  0  0  0  0
    0.2660   -2.4388   16.5499 C   0  0  0  0  0  0
    1.4555   -2.0928   15.9122 C   0  0  0  0  0  0
    2.5973   -2.2259   16.5089 N   0  0  0  0  0  0
    1.4154   -1.6176   14.6447 N   0  0  0  0  0  0
    0.2442   -1.4575   13.9739 C   0  0  0  0  0  0
    0.3088   -0.9898   12.6583 O   0  0  0  0  0  0
   -3.2406   -1.0902   14.7712 O   0  0  0  0  0  0
   -4.3711   -1.9188   14.6335 C   0  0  0  0  0  0
   -5.0785   -2.0569   15.9891 C   0  0  0  0  0  0
   -6.0067   -1.0073   16.1758 O   0  0  0  0  0  0
   -7.5952   -1.5676   15.8904 P   0  0  0  0  0  0
   -8.2583   -0.7131   14.8328 O   0  0  0  0  0  0
   -7.5846   -3.1885   15.3966 O   0  0  0  0  0  0
   -8.4801   -1.4429   17.3262 O   0  0  0  0  0  0
   -5.4052   -3.2558   12.8298 H   0  0  0  0  0  0
    2.6809   -2.5908   17.4850 H   0  0  0  0  0  0
   -0.4188   -0.4492   12.2118 H   0  0  0  0  0  0
   -7.3201   -3.7040   16.1999 H   0  0  0  0  0  0
   -8.1329   -0.6253   17.7642 H   0  0  0  0  0  0
  1  2  1  0  0  0
  1  3  1  0  0  0
  3  4  1  0  0  0
  4  5  1  0  0  0
  5  6  1  0  0  0
  6  7  2  0  0  0
  7  8  1  0  0  0
  8  9  2  0  0  0
  8 10  1  0  0  0
 10 11  2  0  0  0
 11 12  1  0  0  0
  4 13  1  0  0  0
 13 14  1  0  0  0
 14 15  1  0  0  0
 15 16  1  0  0  0
 16 17  1  0  0  0
 17 18  2  0  0  0
 17 19  1  0  0  0
 17 20  1  0  0  0
 14  1  1  0  0  0
 11  5  1  0  0  0
  2 21  1  0  0  0
  9 22  1  0  0  0
 12 23  1  0  0  0
 19 24  1  0  0  0
 20 25  1  0  0  0
M  END
>  <CHROM.0>
174.49229193,177.51217402,-66.25568765,-164.38598117,8.47496724,2.23238479
66.66528590,61.57870638,2.60095509,18.61074111

>  <CHROM.1>
-78.50542157,-82.80658345,29.49820363,-152.89696551,102.40999140,-124.33013126
70.08882442,34.90075406,-3.43730888,-1.94208934,15.06437449,3.04398831,0.00558988
1.38462971

>  <RI>
1.20554e+07

>  <Rbt.Current_Directory>
/extra/banzai2/j5wagner/CELPP/2016_10_17_rdock_implementation/normal_run/tutorialVideo/tutorial_rdock_implementation/full_week_run/4-docking/5wrn/hiResHolo_1ypv_docking

>  <Rbt.Executable>
rbdock ($Id: //depot/dev/client3/rdock/2013.1/src/exe/rbdock.cxx#4 $)

>  <Rbt.Library>
libRbt.so (2013.1, Build901 2013/11/27)

>  <Rbt.Parameter_File>
/home/j5wagner/env_00/source/rDock/rDock_2013.1_src//data/scripts/dock.prm

>  <Rbt.Receptor>
/extra/banzai2/j5wagner/CELPP/2016_10_17_rdock_implementation/normal_run/tutorialVideo/tutorial_rdock_implementation/full_week_run/4-docking/5wrn/hiResHolo_1ypv_tech_prep/rDockGridGenInput.prm

>  <SCORE>
-20.5701

>  <SCORE.INTER>
-26.9645

>  <SCORE.INTER.CONST>
1

>  <SCORE.INTER.POLAR>
-5.08064

>  <SCORE.INTER.REPUL>
0

>  <SCORE.INTER.ROT>
4

>  <SCORE.INTER.VDW>
-19.0903

>  <SCORE.INTER.norm>
-1.34822

>  <SCORE.INTRA>
3.9282

>  <SCORE.INTRA.DIHEDRAL>
7.66426

>  <SCORE.INTRA.DIHEDRAL.0>
8.98184

>  <SCORE.INTRA.POLAR>
0

>  <SCORE.INTRA.POLAR.0>
0

>  <SCORE.INTRA.REPUL>
0

>  <SCORE.INTRA.REPUL.0>
0

>  <SCORE.INTRA.VDW>
0.0960759

>  <SCORE.INTRA.VDW.0>
-1.60828

>  <SCORE.INTRA.norm>
0.19641

>  <SCORE.RESTR>
0

>  <SCORE.RESTR.CAVITY>
0

>  <SCORE.RESTR.norm>
0

>  <SCORE.SYSTEM>
2.46616

>  <SCORE.SYSTEM.CONST>
0

>  <SCORE.SYSTEM.DIHEDRAL>
1.71175

>  <SCORE.SYSTEM.POLAR>
-0.652617

>  <SCORE.SYSTEM.REPUL>
0.959797

>  <SCORE.SYSTEM.VDW>
-0.969803

>  <SCORE.SYSTEM.norm>
0.123308

>  <SCORE.heavy>
20

>  <SCORE.norm>
-1.0285

$$$$

  rDOCK(R)          3D
libRbt.so/2013.1/901 2013/11/27
 25 26  0  0  0  0  0  0  0  0999 V2000
   -3.9293   -3.5915   13.2545 C   0  0  0  0  0  0
   -4.8219   -4.3458   12.4695 O   0  0  0  0  0  0
   -2.5556   -3.5072   12.6491 C   0  0  0  0  0  0
   -2.0696   -2.1197   13.0743 C   0  0  0  0  0  0
   -0.9866   -2.2323   14.0787 N   0  0  0  0  0  0
   -1.1821   -2.9671   15.2209 C   0  0  0  0  0  0
   -0.1858   -3.0679   16.1882 C   0  0  0  0  0  0
    1.0250   -2.4137   15.9706 C   0  0  0  0  0  0
    1.9818   -2.4707   16.8416 N   0  0  0  0  0  0
    1.2052   -1.7140   14.8251 N   0  0  0  0  0  0
    0.2334   -1.6212   13.8793 C   0  0  0  0  0  0
    0.5261   -0.9022   12.7169 O   0  0  0  0  0  0
   -3.1625   -1.3721   13.5804 O   0  0  0  0  0  0
   -4.3339   -2.1257   13.3715 C   0  0  0  0  0  0
   -5.3172   -1.8823   14.5252 C   0  0  0  0  0  0
   -5.5922   -0.5026   14.6627 O   0  0  0  0  0  0
   -6.9017   -0.2666   15.7342 P   0  0  0  0  0  0
   -6.5964    0.8801   16.6726 O   0  0  0  0  0  0
   -8.3304    0.0532   14.8812 O   0  0  0  0  0  0
   -7.1168   -1.6749   16.6457 O   0  0  0  0  0  0
   -4.4983   -5.2841   12.4425 H   0  0  0  0  0  0
    1.8927   -2.9998   17.7388 H   0  0  0  0  0  0
    1.1204   -0.0855   12.6893 H   0  0  0  0  0  0
   -8.5113   -0.7684   14.3584 H   0  0  0  0  0  0
   -7.9463   -1.5145   17.1624 H   0  0  0  0  0  0
  1  2  1  0  0  0
  1  3  1  0  0  0
  3  4  1  0  0  0
  4  5  1  0  0  0
  5  6  1  0  0  0
  6  7  2  0  0  0
  7  8  1  0  0  0
  8  9  2  0  0  0
  8 10  1  0  0  0
 10 11  2  0  0  0
 11 12  1  0  0  0
  4 13  1  0  0  0
 13 14  1  0  0  0
 14 15  1  0  0  0
 15 16  1  0  0  0
 16 17  1  0  0  0
 17 18  2  0  0  0
 17 19  1  0  0  0
 17 20  1  0  0  0
 14  1  1  0  0  0
 11  5  1  0  0  0
  2 21  1  0  0  0
  9 22  1  0  0  0
 12 23  1  0  0  0
 19 24  1  0  0  0
 20 25  1  0  0  0
M  END
>  <CHROM.0>
60.63837295,-56.92101885,-178.56189631,-168.94587400,12.55137313,1.02000355
178.39131166,60.13836174,-3.43099314,-106.01291955

>  <CHROM.1>
64.51761015,-54.05163293,146.39675187,175.74405531,169.10207873,136.82194275
63.68494185,-173.50738531,-3.28832213,-1.75572264,14.63068985,2.95076032
-0.13491484,0.99454871

>  <RI>
1.20554e+07

>  <Rbt.Current_Directory>
/extra/banzai2/j5wagner/CELPP/2016_10_17_rdock_implementation/normal_run/tutorialVideo/tutorial_rdock_implementation/full_week_run/4-docking/5wrn/hiResHolo_1ypv_docking

>  <Rbt.Executable>
rbdock ($Id: //depot/dev/client3/rdock/2013.1/src/exe/rbdock.cxx#4 $)

>  <Rbt.Library>
libRbt.so (2013.1, Build901 2013/11/27)

>  <Rbt.Parameter_File>
/home/j5wagner/env_00/source/rDock/rDock_2013.1_src//data/scripts/dock.prm

>  <Rbt.Receptor>
/extra/banzai2/j5wagner/CELPP/2016_10_17_rdock_implementation/normal_run/tutorialVideo/tutorial_rdock_implementation/full_week_run/4-docking/5wrn/hiResHolo_1ypv_tech_prep/rDockGridGenInput.prm

>  <SCORE>
-20.5662

>  <SCORE.INTER>
-17.0857

>  <SCORE.INTER.CONST>
1

>  <SCORE.INTER.POLAR>
-2.63834

>  <SCORE.INTER.REPUL>
0.0141757

>  <SCORE.INTER.ROT>
4

>  <SCORE.INTER.VDW>
-17.5862

>  <SCORE.INTER.norm>
-0.854283

>  <SCORE.INTRA>
-0.244105

>  <SCORE.INTRA.DIHEDRAL>
-2.28366

>  <SCORE.INTRA.DIHEDRAL.0>
8.98184

>  <SCORE.INTRA.POLAR>
0

>  <SCORE.INTRA.POLAR.0>
0

>  <SCORE.INTRA.REPUL>
0

>  <SCORE.INTRA.REPUL.0>
0

>  <SCORE.INTRA.VDW>
0.897724

>  <SCORE.INTRA.VDW.0>
-1.60828

>  <SCORE.INTRA.norm>
-0.0122053

>  <SCORE.RESTR>
0.0386276

>  <SCORE.RESTR.CAVITY>
0.0386276

>  <SCORE.RESTR.norm>
0.00193138

>  <SCORE.SYSTEM>
-3.27504

>  <SCORE.SYSTEM.CONST>
0

>  <SCORE.SYSTEM.DIHEDRAL>
5.05512

>  <SCORE.SYSTEM.POLAR>
-1.74939

>  <SCORE.SYSTEM.REPUL>
0.528216

>  <SCORE.SYSTEM.VDW>
-2.49576

>  <SCORE.SYSTEM.norm>
-0.163752

>  <SCORE.heavy>
20

>  <SCORE.norm>
-1.02831

$$$$

  rDOCK(R)          3D
libRbt.so/2013.1/901 2013/11/27
 25 26  0  0  0  0  0  0  0  0999 V2000
   -3.7482   -3.2478   11.6601 C   0  0  0  0  0  0
   -3.8301   -4.0296   10.4921 O   0  0  0  0  0  0
   -4.7105   -3.6958   12.7250 C   0  0  0  0  0  0
   -3.9601   -3.3953   14.0245 C   0  0  0  0  0  0
   -4.5948   -2.2661   14.7432 N   0  0  0  0  0  0
   -4.0863   -0.9981   14.6168 C   0  0  0  0  0  0
   -4.6536    0.0737   15.3008 C   0  0  0  0  0  0
   -5.7602   -0.1631   16.1136 C   0  0  0  0  0  0
   -6.3215    0.7980   16.7758 N   0  0  0  0  0  0
   -6.2606   -1.4183   16.2047 N   0  0  0  0  0  0
   -5.7088   -2.4625   15.5320 C   0  0  0  0  0  0
   -6.3163   -3.7142   15.6659 O   0  0  0  0  0  0
   -2.6015   -3.1172   13.7308 O   0  0  0  0  0  0
   -2.3977   -3.3639   12.3592 C   0  0  0  0  0  0
   -1.3662   -2.3715   11.8037 C   0  0  0  0  0  0
   -0.1111   -2.5566   12.4270 O   0  0  0  0  0  0
   -0.0678   -1.7303   13.9217 P   0  0  0  0  0  0
   -1.2492   -0.7908   14.0229 O   0  0  0  0  0  0
   -0.0892   -2.8226   15.2169 O   0  0  0  0  0  0
    1.3580   -0.8240   13.9989 O   0  0  0  0  0  0
   -4.7363   -3.9158   10.1027 H   0  0  0  0  0  0
   -5.9748    1.7835   16.7362 H   0  0  0  0  0  0
   -6.9501   -3.9604   16.4135 H   0  0  0  0  0  0
   -0.1289   -2.2604   16.0314 H   0  0  0  0  0  0
    1.3338   -0.3946   14.8910 H   0  0  0  0  0  0
  1  2  1  0  0  0
  1  3  1  0  0  0
  3  4  1  0  0  0
  4  5  1  0  0  0
  5  6  1  0  0  0
  6  7  2  0  0  0
  7  8  1  0  0  0
  8  9  2  0  0  0
  8 10  1  0  0  0
 10 11  2  0  0  0
 11 12  1  0  0  0
  4 13  1  0  0  0
 13 14  1  0  0  0
 14 15  1  0  0  0
 15 16  1  0  0  0
 16 17  1  0  0  0
 17 18  2  0  0  0
 17 19  1  0  0  0
 17 20  1  0  0  0
 14  1  1  0  0  0
 11  5  1  0  0  0
  2 21  1  0  0  0
  9 22  1  0  0  0
 12 23  1  0  0  0
 19 24  1  0  0  0
 20 25  1  0  0  0
M  END
>  <CHROM.0>
-60.30132219,-56.08749563,-66.42190860,-168.42421970,-177.37913328,11.18226294
-63.90146624,-61.80559235,-169.59435812,43.26393724

>  <CHROM.1>
63.32330490,-97.71917422,161.81480117,-176.95834977,-82.90628614,-12.46259596
-175.98639234,-178.44075196,-3.03725861,-2.10763863,14.03703890,0.39499130
-0.18835840,-2.27728082

>  <RI>
1.20554e+07

>  <Rbt.Current_Directory>
/extra/banzai2/j5wagner/CELPP/2016_10_17_rdock_implementation/normal_run/tutorialVideo/tutorial_rdock_implementation/full_week_run/4-docking/5wrn/hiResHolo_1ypv_docking

>  <Rbt.Executable>
rbdock ($Id: //depot/dev/client3/rdock/2013.1/src/exe/rbdock.cxx#4 $)

>  <Rbt.Library>
libRbt.so (2013.1, Build901 2013/11/27)

>  <Rbt.Parameter_File>
/home/j5wagner/env_00/source/rDock/rDock_2013.1_src//data/scripts/dock.prm

>  <Rbt.Receptor>
/extra/banzai2/j5wagner/CELPP/2016_10_17_rdock_implementation/normal_run/tutorialVideo/tutorial_rdock_implementation/full_week_run/4-docking/5wrn/hiResHolo_1ypv_tech_prep/rDockGridGenInput.prm

>  <SCORE>
-20.133

>  <SCORE.INTER>
-15.9659

>  <SCORE.INTER.CONST>
1

>  <SCORE.INTER.POLAR>
-2.85191

>  <SCORE.INTER.REPUL>
0

>  <SCORE.INTER.ROT>
4

>  <SCORE.INTER.VDW>
-15.6694

>  <SCORE.INTER.norm>
-0.798293

>  <SCORE.INTRA>
-0.456249

>  <SCORE.INTRA.DIHEDRAL>
-1.38528

>  <SCORE.INTRA.DIHEDRAL.0>
8.98184

>  <SCORE.INTRA.POLAR>
0

>  <SCORE.INTRA.POLAR.0>
0

>  <SCORE.INTRA.REPUL>
0

>  <SCORE.INTRA.REPUL.0>
0

>  <SCORE.INTRA.VDW>
0.236389

>  <SCORE.INTRA.VDW.0>
-1.60828

>  <SCORE.INTRA.norm>
-0.0228125

>  <SCORE.RESTR>
0.0421987

>  <SCORE.RESTR.CAVITY>
0.0421987

>  <SCORE.RESTR.norm>
0.00210993

>  <SCORE.SYSTEM>
-3.75312

>  <SCORE.SYSTEM.CONST>
0

>  <SCORE.SYSTEM.DIHEDRAL>
3.28381

>  <SCORE.SYSTEM.POLAR>
-1.35622

>  <SCORE.SYSTEM.REPUL>
0.149755

>  <SCORE.SYSTEM.VDW>
-1.53267

>  <SCORE.SYSTEM.norm>
-0.187656

>  <SCORE.heavy>
20

>  <SCORE.norm>
-1.00665

$$$$

  rDOCK(R)          3D
libRbt.so/2013.1/901 2013/11/27
 25 26  0  0  0  0  0  0  0  0999 V2000
   -4.1982   -1.4922   14.3783 C   0  0  0  0  0  0
   -4.1667   -0.3899   15.2535 O   0  0  0  0  0  0
   -2.9662   -1.5863   13.5217 C   0  0  0  0  0  0
   -2.7788   -3.0945   13.3415 C   0  0  0  0  0  0
   -3.0735   -3.4929   11.9455 N   0  0  0  0  0  0
   -2.1026   -3.3891   10.9815 C   0  0  0  0  0  0
   -2.3648   -3.7369    9.6592 C   0  0  0  0  0  0
   -3.6355   -4.2048    9.3309 C   0  0  0  0  0  0
   -3.9326   -4.5360    8.1147 N   0  0  0  0  0  0
   -4.5713   -4.3222   10.3029 N   0  0  0  0  0  0
   -4.3120   -3.9874   11.5944 C   0  0  0  0  0  0
   -5.3333   -4.1736   12.5304 O   0  0  0  0  0  0
   -3.6102   -3.7856   14.2583 O   0  0  0  0  0  0
   -4.2009   -2.8309   15.1089 C   0  0  0  0  0  0
   -5.6173   -3.2848   15.4898 C   0  0  0  0  0  0
   -6.1631   -2.4358   16.4795 O   0  0  0  0  0  0
   -7.5564   -1.6504   15.8792 P   0  0  0  0  0  0
   -7.1673   -0.3406   15.2298 O   0  0  0  0  0  0
   -8.3664   -2.6297   14.7584 O   0  0  0  0  0  0
   -8.5976   -1.3298   17.1728 O   0  0  0  0  0  0
   -5.0817   -0.2500   15.6130 H   0  0  0  0  0  0
   -3.2448   -4.4663    7.3304 H   0  0  0  0  0  0
   -5.1818   -4.4727   13.4836 H   0  0  0  0  0  0
   -7.8393   -2.5604   13.9227 H   0  0  0  0  0  0
   -8.0740   -0.7448   17.7766 H   0  0  0  0  0  0
  1  2  1  0  0  0
  1  3  1  0  0  0
  3  4  1  0  0  0
  4  5  1  0  0  0
  5  6  1  0  0  0
  6  7  2  0  0  0
  7  8  1  0  0  0
  8  9  2  0  0  0
  8 10  1  0  0  0
 10 11  2  0  0  0
 11 12  1  0  0  0
  4 13  1  0  0  0
 13 14  1  0  0  0
 14 15  1  0  0  0
 15 16  1  0  0  0
 16 17  1  0  0  0
 17 18  2  0  0  0
 17 19  1  0  0  0
 17 20  1  0  0  0
 14  1  1  0  0  0
 11  5  1  0  0  0
  2 21  1  0  0  0
  9 22  1  0  0  0
 12 23  1  0  0  0
 19 24  1  0  0  0
 20 25  1  0  0  0
M  END
>  <CHROM.0>
34.90536313,-66.71639518,68.81734063,72.69380424,6.62777667,7.22486829,-61.12197223
-179.46413585,3.81890727,171.43177405

>  <CHROM.1>
165.72520803,84.23951446,-35.70817640,-67.95106720,117.66054939,-90.20192142
-77.22376179,60.24673420,-5.01257263,-2.71524176,13.54568257,-2.13036476
-0.12560194,-2.03637002

>  <RI>
1.20554e+07

>  <Rbt.Current_Directory>
/extra/banzai2/j5wagner/CELPP/2016_10_17_rdock_implementation/normal_run/tutorialVideo/tutorial_rdock_implementation/full_week_run/4-docking/5wrn/hiResHolo_1ypv_docking

>  <Rbt.Executable>
rbdock ($Id: //depot/dev/client3/rdock/2013.1/src/exe/rbdock.cxx#4 $)

>  <Rbt.Library>
libRbt.so (2013.1, Build901 2013/11/27)

>  <Rbt.Parameter_File>
/home/j5wagner/env_00/source/rDock/rDock_2013.1_src//data/scripts/dock.prm

>  <Rbt.Receptor>
/extra/banzai2/j5wagner/CELPP/2016_10_17_rdock_implementation/normal_run/tutorialVideo/tutorial_rdock_implementation/full_week_run/4-docking/5wrn/hiResHolo_1ypv_tech_prep/rDockGridGenInput.prm

>  <SCORE>
-19.9935

>  <SCORE.INTER>
-13.509

>  <SCORE.INTER.CONST>
1

>  <SCORE.INTER.POLAR>
-2.07219

>  <SCORE.INTER.REPUL>
0.0105929

>  <SCORE.INTER.ROT>
4

>  <SCORE.INTER.VDW>
-15.9165

>  <SCORE.INTER.norm>
-0.675452

>  <SCORE.INTRA>
0.285977

>  <SCORE.INTRA.DIHEDRAL>
5.00536

>  <SCORE.INTRA.DIHEDRAL.0>
8.98184

>  <SCORE.INTRA.POLAR>
-0.780092

>  <SCORE.INTRA.POLAR.0>
0

>  <SCORE.INTRA.REPUL>
0

>  <SCORE.INTRA.REPUL.0>
0

>  <SCORE.INTRA.VDW>
0.435609

>  <SCORE.INTRA.VDW.0>
-1.60828

>  <SCORE.INTRA.norm>
0.0142988

>  <SCORE.RESTR>
0.595439

>  <SCORE.RESTR.CAVITY>
0.595439

>  <SCORE.RESTR.norm>
0.029772

>  <SCORE.SYSTEM>
-7.36588

>  <SCORE.SYSTEM.CONST>
0

>  <SCORE.SYSTEM.DIHEDRAL>
2.63073

>  <SCORE.SYSTEM.POLAR>
-2.20435

>  <SCORE.SYSTEM.REPUL>
0.0567822

>  <SCORE.SYSTEM.VDW>
-1.47037

>  <SCORE.SYSTEM.norm>
-0.368294

>  <SCORE.heavy>
20

>  <SCORE.norm>
-0.999675

$$$$

  rDOCK(R)          3D
libRbt.so/2013.1/901 2013/11/27
 25 26  0  0  0  0  0  0  0  0999 V2000
   -1.9824   -1.4108   16.7628 C   0  0  0  0  0  0
   -0.8755   -1.4084   17.6327 O   0  0  0  0  0  0
   -3.0628   -0.4602   17.1984 C   0  0  0  0  0  0
   -3.6624    0.0195   15.8746 C   0  0  0  0  0  0
   -5.0256   -0.5301   15.6907 N   0  0  0  0  0  0
   -6.1215    0.2765   15.8669 C   0  0  0  0  0  0
   -7.4121   -0.2250   15.7208 C   0  0  0  0  0  0
   -7.5728   -1.5666   15.3807 C   0  0  0  0  0  0
   -8.7516   -2.0838   15.2386 N   0  0  0  0  0  0
   -6.4769   -2.3386   15.1878 N   0  0  0  0  0  0
   -5.2176   -1.8460   15.3254 C   0  0  0  0  0  0
   -4.1507   -2.7135   15.0746 O   0  0  0  0  0  0
   -2.8094   -0.3571   14.8069 O   0  0  0  0  0  0
   -1.6396   -0.9093   15.3639 C   0  0  0  0  0  0
   -1.1140   -2.0297   14.4552 C   0  0  0  0  0  0
   -1.1759   -1.6403   13.0977 O   0  0  0  0  0  0
   -1.3516   -3.0144   12.0979 P   0  0  0  0  0  0
   -0.0371   -3.7584   12.0127 O   0  0  0  0  0  0
   -2.5579   -4.0447   12.6933 O   0  0  0  0  0  0
   -1.7906   -2.5034   10.5466 O   0  0  0  0  0  0
   -1.2102   -1.4829   18.5646 H   0  0  0  0  0  0
   -9.6275   -1.5292   15.3735 H   0  0  0  0  0  0
   -4.2564   -3.6931   14.8506 H   0  0  0  0  0  0
   -2.2600   -4.2961   13.6038 H   0  0  0  0  0  0
   -2.7115   -2.1537   10.6494 H   0  0  0  0  0  0
  1  2  1  0  0  0
  1  3  1  0  0  0
  3  4  1  0  0  0
  4  5  1  0  0  0
  5  6  1  0  0  0
  6  7  2  0  0  0
  7  8  1  0  0  0
  8  9  2  0  0  0
  8 10  1  0  0  0
 10 11  2  0  0  0
 11 12  1  0  0  0
  4 13  1  0  0  0
 13 14  1  0  0  0
 14 15  1  0  0  0
 15 16  1  0  0  0
 16 17  1  0  0  0
 17 18  2  0  0  0
 17 19  1  0  0  0
 17 20  1  0  0  0
 14  1  1  0  0  0
 11  5  1  0  0  0
  2 21  1  0  0  0
  9 22  1  0  0  0
 12 23  1  0  0  0
 19 24  1  0  0  0
 20 25  1  0  0  0
M  END
>  <CHROM.0>
-58.54823588,-49.59736544,67.76052206,72.05642145,11.97628606,14.71332355
-63.73462910,62.32860661,-164.94439391,175.97698891

>  <CHROM.1>
47.85708857,105.02103240,176.80933644,162.96574796,-152.13478204,-74.47061161
-59.40861657,-68.88451390,-3.39638468,-1.77081841,14.57368176,-2.54721817
0.01514667,-2.04854995

>  <RI>
1.20554e+07

>  <Rbt.Current_Directory>
/extra/banzai2/j5wagner/CELPP/2016_10_17_rdock_implementation/normal_run/tutorialVideo/tutorial_rdock_implementation/full_week_run/4-docking/5wrn/hiResHolo_1ypv_docking

>  <Rbt.Executable>
rbdock ($Id: //depot/dev/client3/rdock/2013.1/src/exe/rbdock.cxx#4 $)

>  <Rbt.Library>
libRbt.so (2013.1, Build901 2013/11/27)

>  <Rbt.Parameter_File>
/home/j5wagner/env_00/source/rDock/rDock_2013.1_src//data/scripts/dock.prm

>  <Rbt.Receptor>
/extra/banzai2/j5wagner/CELPP/2016_10_17_rdock_implementation/normal_run/tutorialVideo/tutorial_rdock_implementation/full_week_run/4-docking/5wrn/hiResHolo_1ypv_tech_prep/rDockGridGenInput.prm

>  <SCORE>
-18.8888

>  <SCORE.INTER>
-11.2814

>  <SCORE.INTER.CONST>
1

>  <SCORE.INTER.POLAR>
-1.08781

>  <SCORE.INTER.REPUL>
0.000305218

>  <SCORE.INTER.ROT>
4

>  <SCORE.INTER.VDW>
-16.9843

>  <SCORE.INTER.norm>
-0.564068

>  <SCORE.INTRA>
-1.24934

>  <SCORE.INTRA.DIHEDRAL>
-1.25821

>  <SCORE.INTRA.DIHEDRAL.0>
8.98184

>  <SCORE.INTRA.POLAR>
0

>  <SCORE.INTRA.POLAR.0>
0

>  <SCORE.INTRA.REPUL>
0

>  <SCORE.INTRA.REPUL.0>
0

>  <SCORE.INTRA.VDW>
-0.620232

>  <SCORE.INTRA.VDW.0>
-1.60828

>  <SCORE.INTRA.norm>
-0.0624668

>  <SCORE.RESTR>
1.46639

>  <SCORE.RESTR.CAVITY>
1.46639

>  <SCORE.RESTR.norm>
0.0733193

>  <SCORE.SYSTEM>
-7.82448

>  <SCORE.SYSTEM.CONST>
0

>  <SCORE.SYSTEM.DIHEDRAL>
2.1619

>  <SCORE.SYSTEM.POLAR>
-2.72805

>  <SCORE.SYSTEM.REPUL>
0.528121

>  <SCORE.SYSTEM.VDW>
-2.27067

>  <SCORE.SYSTEM.norm>
-0.391224

>  <SCORE.heavy>
20

>  <SCORE.norm>
-0.94444

$$$$

  rDOCK(R)          3D
libRbt.so/2013.1/901 2013/11/27
 25 26  0  0  0  0  0  0  0  0999 V2000
   -2.1437   -2.8389   14.4902 C   0  0  0  0  0  0
   -0.8078   -3.2641   14.6190 O   0  0  0  0  0  0
   -2.4749   -1.6879   15.3990 C   0  0  0  0  0  0
   -3.5005   -0.8881   14.5925 C   0  0  0  0  0  0
   -4.8456   -1.0009   15.2027 N   0  0  0  0  0  0
   -5.5952   -2.1338   15.0096 C   0  0  0  0  0  0
   -6.8706   -2.2516   15.5554 C   0  0  0  0  0  0
   -7.3723   -1.1965   16.3146 C   0  0  0  0  0  0
   -8.5549   -1.2534   16.8393 N   0  0  0  0  0  0
   -6.6057   -0.0978   16.5127 N   0  0  0  0  0  0
   -5.3586    0.0134   15.9837 C   0  0  0  0  0  0
   -4.6332    1.1731   16.2706 O   0  0  0  0  0  0
   -3.5061   -1.3462   13.2510 O   0  0  0  0  0  0
   -2.4569   -2.2749   13.1082 C   0  0  0  0  0  0
   -2.8670   -3.3681   12.1113 C   0  0  0  0  0  0
   -3.1392   -2.8083   10.8421 O   0  0  0  0  0  0
   -3.5567   -4.0384    9.7326 P   0  0  0  0  0  0
   -4.5493   -4.9870   10.3679 O   0  0  0  0  0  0
   -4.2163   -3.3782    8.3184 O   0  0  0  0  0  0
   -2.1592   -4.9012    9.3288 O   0  0  0  0  0  0
   -0.6693   -3.5818   15.5495 H   0  0  0  0  0  0
   -9.1832   -2.0801   16.7180 H   0  0  0  0  0  0
   -4.9698    1.9219   16.8598 H   0  0  0  0  0  0
   -3.4865   -2.8436    7.9151 H   0  0  0  0  0  0
   -1.6366   -4.2801    8.7614 H   0  0  0  0  0  0
  1  2  1  0  0  0
  1  3  1  0  0  0
  3  4  1  0  0  0
  4  5  1  0  0  0
  5  6  1  0  0  0
  6  7  2  0  0  0
  7  8  1  0  0  0
  8  9  2  0  0  0
  8 10  1  0  0  0
 10 11  2  0  0  0
 11 12  1  0  0  0
  4 13  1  0  0  0
 13 14  1  0  0  0
 14 15  1  0  0  0
 15 16  1  0  0  0
 16 17  1  0  0  0
 17 18  2  0  0  0
 17 19  1  0  0  0
 17 20  1  0  0  0
 14  1  1  0  0  0
 11  5  1  0  0  0
  2 21  1  0  0  0
  9 22  1  0  0  0
 12 23  1  0  0  0
 19 24  1  0  0  0
 20 25  1  0  0  0
M  END
>  <CHROM.0>
60.34070547,62.21339109,65.84846403,72.17244051,173.73506127,6.01705597,179.16247280
-60.66910971,3.54126500,171.58034420

>  <CHROM.1>
61.95125371,-78.08297029,-178.20460809,-179.57194517,178.60920427,45.76295612
63.78627438,-71.58730519,-4.14794745,-2.28359804,13.33596731,-1.19105115
-0.04999260,1.09672910

>  <RI>
1.20554e+07

>  <Rbt.Current_Directory>
/extra/banzai2/j5wagner/CELPP/2016_10_17_rdock_implementation/normal_run/tutorialVideo/tutorial_rdock_implementation/full_week_run/4-docking/5wrn/hiResHolo_1ypv_docking

>  <Rbt.Executable>
rbdock ($Id: //depot/dev/client3/rdock/2013.1/src/exe/rbdock.cxx#4 $)

>  <Rbt.Library>
libRbt.so (2013.1, Build901 2013/11/27)

>  <Rbt.Parameter_File>
/home/j5wagner/env_00/source/rDock/rDock_2013.1_src//data/scripts/dock.prm

>  <Rbt.Receptor>
/extra/banzai2/j5wagner/CELPP/2016_10_17_rdock_implementation/normal_run/tutorialVideo/tutorial_rdock_implementation/full_week_run/4-docking/5wrn/hiResHolo_1ypv_tech_prep/rDockGridGenInput.prm

>  <SCORE>
-18.1434

>  <SCORE.INTER>
-11.9764

>  <SCORE.INTER.CONST>
1

>  <SCORE.INTER.POLAR>
-1.56145

>  <SCORE.INTER.REPUL>
0.195778

>  <SCORE.INTER.ROT>
4

>  <SCORE.INTER.VDW>
-17.0464

>  <SCORE.INTER.norm>
-0.598819

>  <SCORE.INTRA>
-2.75198

>  <SCORE.INTRA.DIHEDRAL>
-5.93117

>  <SCORE.INTRA.DIHEDRAL.0>
8.98184

>  <SCORE.INTRA.POLAR>
0

>  <SCORE.INTRA.POLAR.0>
0

>  <SCORE.INTRA.REPUL>
0

>  <SCORE.INTRA.REPUL.0>
0

>  <SCORE.INTRA.VDW>
0.213602

>  <SCORE.INTRA.VDW.0>
-1.60828

>  <SCORE.INTRA.norm>
-0.137599

>  <SCORE.RESTR>
0.276504

>  <SCORE.RESTR.CAVITY>
0.276504

>  <SCORE.RESTR.norm>
0.0138252

>  <SCORE.SYSTEM>
-3.69149

>  <SCORE.SYSTEM.CONST>
0

>  <SCORE.SYSTEM.DIHEDRAL>
0.802362

>  <SCORE.SYSTEM.POLAR>
-1.19113

>  <SCORE.SYSTEM.REPUL>
0.207378

>  <SCORE.SYSTEM.VDW>
-1.07971

>  <SCORE.SYSTEM.norm>
-0.184574

>  <SCORE.heavy>
20

>  <SCORE.norm>
-0.907168

$$$$

  rDOCK(R)          3D
libRbt.so/2013.1/901 2013/11/27
 25 26  0  0  0  0  0  0  0  0999 V2000
   -3.1885   -1.7762   14.2111 C   0  0  0  0  0  0
   -2.5500   -1.3397   15.3874 O   0  0  0  0  0  0
   -2.6935   -3.1183   13.7479 C   0  0  0  0  0  0
   -3.9348   -3.7502   13.1140 C   0  0  0  0  0  0
   -3.7827   -3.8348   11.6429 N   0  0  0  0  0  0
   -2.5518   -3.6450   11.0672 C   0  0  0  0  0  0
   -2.3905   -3.6980    9.6854 C   0  0  0  0  0  0
   -3.5059   -3.9589    8.8922 C   0  0  0  0  0  0
   -3.4109   -4.0129    7.6017 N   0  0  0  0  0  0
   -4.7066   -4.1672    9.4830 N   0  0  0  0  0  0
   -4.8613   -4.1204   10.8326 C   0  0  0  0  0  0
   -6.1339   -4.3800   11.3490 O   0  0  0  0  0  0
   -5.0811   -2.9952   13.4683 O   0  0  0  0  0  0
   -4.6824   -2.0178   14.4007 C   0  0  0  0  0  0
   -5.5102   -0.7411   14.1964 C   0  0  0  0  0  0
   -6.2324   -0.4226   15.3691 O   0  0  0  0  0  0
   -7.5731   -1.4680   15.5378 P   0  0  0  0  0  0
   -7.1286   -2.9039   15.3675 O   0  0  0  0  0  0
   -8.3077   -1.2691   17.0517 O   0  0  0  0  0  0
   -8.7021   -1.1000   14.3335 O   0  0  0  0  0  0
   -1.5865   -1.2055   15.1887 H   0  0  0  0  0  0
   -2.5067   -3.8624    7.0991 H   0  0  0  0  0  0
   -6.9676   -4.4706   10.7853 H   0  0  0  0  0  0
   -9.0134   -1.9629   17.0922 H   0  0  0  0  0  0
   -9.2477   -0.3678   14.7170 H   0  0  0  0  0  0
  1  2  1  0  0  0
  1  3  1  0  0  0
  3  4  1  0  0  0
  4  5  1  0  0  0
  5  6  1  0  0  0
  6  7  2  0  0  0
  7  8  1  0  0  0
  8  9  2  0  0  0
  8 10  1  0  0  0
 10 11  2  0  0  0
 11 12  1  0  0  0
  4 13  1  0  0  0
 13 14  1  0  0  0
 14 15  1  0  0  0
 15 16  1  0  0  0
 16 17  1  0  0  0
 17 18  2  0  0  0
 17 19  1  0  0  0
 17 20  1  0  0  0
 14  1  1  0  0  0
 11  5  1  0  0  0
  2 21  1  0  0  0
  9 22  1  0  0  0
 12 23  1  0  0  0
 19 24  1  0  0  0
 20 25  1  0  0  0
M  END
>  <CHROM.0>
-77.01477144,-55.58716941,-65.01931781,-48.91203126,-174.65142735,-176.32978668
-174.43539673,-177.18204267,10.56458164,19.39963003

>  <CHROM.1>
64.17314606,13.71121925,171.50026372,-120.08680911,-75.46825365,49.42979738
-175.03042371,-86.06721583,-5.11251864,-2.60830686,13.11360914,-2.09339307
-0.00807236,-1.99468804

>  <RI>
1.20554e+07

>  <Rbt.Current_Directory>
/extra/banzai2/j5wagner/CELPP/2016_10_17_rdock_implementation/normal_run/tutorialVideo/tutorial_rdock_implementation/full_week_run/4-docking/5wrn/hiResHolo_1ypv_docking

>  <Rbt.Executable>
rbdock ($Id: //depot/dev/client3/rdock/2013.1/src/exe/rbdock.cxx#4 $)

>  <Rbt.Library>
libRbt.so (2013.1, Build901 2013/11/27)

>  <Rbt.Parameter_File>
/home/j5wagner/env_00/source/rDock/rDock_2013.1_src//data/scripts/dock.prm

>  <Rbt.Receptor>
/extra/banzai2/j5wagner/CELPP/2016_10_17_rdock_implementation/normal_run/tutorialVideo/tutorial_rdock_implementation/full_week_run/4-docking/5wrn/hiResHolo_1ypv_tech_prep/rDockGridGenInput.prm

>  <SCORE>
-17.867

>  <SCORE.INTER>
-17.7167

>  <SCORE.INTER.CONST>
1

>  <SCORE.INTER.POLAR>
-2.32443

>  <SCORE.INTER.REPUL>
0.165225

>  <SCORE.INTER.ROT>
4

>  <SCORE.INTER.VDW>
-20.0397

>  <SCORE.INTER.norm>
-0.885833

>  <SCORE.INTRA>
3.23181

>  <SCORE.INTRA.DIHEDRAL>
1.23813

>  <SCORE.INTRA.DIHEDRAL.0>
8.98184

>  <SCORE.INTRA.POLAR>
0

>  <SCORE.INTRA.POLAR.0>
0

>  <SCORE.INTRA.REPUL>
0

>  <SCORE.INTRA.REPUL.0>
0

>  <SCORE.INTRA.VDW>
2.61274

>  <SCORE.INTRA.VDW.0>
-1.60828

>  <SCORE.INTRA.norm>
0.16159

>  <SCORE.RESTR>
0.0222071

>  <SCORE.RESTR.CAVITY>
0.0222071

>  <SCORE.RESTR.norm>
0.00111035

>  <SCORE.SYSTEM>
-3.40431

>  <SCORE.SYSTEM.CONST>
0

>  <SCORE.SYSTEM.DIHEDRAL>
2.13033

>  <SCORE.SYSTEM.POLAR>
-1.28573

>  <SCORE.SYSTEM.REPUL>
0.176431

>  <SCORE.SYSTEM.VDW>
-0.980163

>  <SCORE.SYSTEM.norm>
-0.170216

>  <SCORE.heavy>
20

>  <SCORE.norm>
-0.893348

$$$$

  rDOCK(R)          3D
libRbt.so/2013.1/901 2013/11/27
 25 26  0  0  0  0  0  0  0  0999 V2000
   -2.2446   -2.7352   12.5130 C   0  0  0  0  0  0
   -1.4683   -3.1336   11.4082 O   0  0  0  0  0  0
   -3.6352   -3.3058   12.4791 C   0  0  0  0  0  0
   -3.9682   -3.5060   13.9593 C   0  0  0  0  0  0
   -5.0016   -2.5387   14.3962 N   0  0  0  0  0  0
   -6.2181   -2.9881   14.8442 C   0  0  0  0  0  0
   -7.2114   -2.0958   15.2385 C   0  0  0  0  0  0
   -6.9438   -0.7297   15.1795 C   0  0  0  0  0  0
   -7.8355    0.1421   15.5292 N   0  0  0  0  0  0
   -5.7277   -0.3090   14.7572 N   0  0  0  0  0  0
   -4.7572   -1.1816   14.3778 C   0  0  0  0  0  0
   -3.5245   -0.6512   13.9871 O   0  0  0  0  0  0
   -2.7857   -3.3761   14.7302 O   0  0  0  0  0  0
   -1.7014   -3.2562   13.8395 C   0  0  0  0  0  0
   -0.6395   -2.3247   14.4411 C   0  0  0  0  0  0
    0.3381   -1.9941   13.4750 O   0  0  0  0  0  0
    0.6832   -0.3219   13.5341 P   0  0  0  0  0  0
    0.7148    0.2452   12.1319 O   0  0  0  0  0  0
   -0.4719    0.5011   14.4613 O   0  0  0  0  0  0
    2.2031   -0.1070   14.2439 O   0  0  0  0  0  0
   -1.8939   -2.7805   10.5835 H   0  0  0  0  0  0
   -8.7869   -0.1322   15.8646 H   0  0  0  0  0  0
   -3.2481    0.3097   14.1333 H   0  0  0  0  0  0
   -0.3336    0.1856   15.3900 H   0  0  0  0  0  0
    2.1967    0.8278   14.5711 H   0  0  0  0  0  0
  1  2  1  0  0  0
  1  3  1  0  0  0
  3  4  1  0  0  0
  4  5  1  0  0  0
  5  6  1  0  0  0
  6  7  2  0  0  0
  7  8  1  0  0  0
  8  9  2  0  0  0
  8 10  1  0  0  0
 10 11  2  0  0  0
 11 12  1  0  0  0
  4 13  1  0  0  0
 13 14  1  0  0  0
 14 15  1  0  0  0
 15 16  1  0  0  0
 16 17  1  0  0  0
 17 18  2  0  0  0
 17 19  1  0  0  0
 17 20  1  0  0  0
 14  1  1  0  0  0
 11  5  1  0  0  0
  2 21  1  0  0  0
  9 22  1  0  0  0
 12 23  1  0  0  0
 19 24  1  0  0  0
 20 25  1  0  0  0
M  END
>  <CHROM.0>
-51.76734216,-50.98131882,-179.78558022,72.18091526,8.55737884,5.70027505
67.47129708,65.70338653,15.30491145,30.63440295

>  <CHROM.1>
62.73045206,117.60572004,-167.30609034,-49.52972119,135.40771339,-134.47306081
67.49468452,-158.53268172,-2.63447948,-1.55430162,13.91987506,-0.02452072
-0.23104112,-2.75358854

>  <RI>
1.20554e+07

>  <Rbt.Current_Directory>
/extra/banzai2/j5wagner/CELPP/2016_10_17_rdock_implementation/normal_run/tutorialVideo/tutorial_rdock_implementation/full_week_run/4-docking/5wrn/hiResHolo_1ypv_docking

>  <Rbt.Executable>
rbdock ($Id: //depot/dev/client3/rdock/2013.1/src/exe/rbdock.cxx#4 $)

>  <Rbt.Library>
libRbt.so (2013.1, Build901 2013/11/27)

>  <Rbt.Parameter_File>
/home/j5wagner/env_00/source/rDock/rDock_2013.1_src//data/scripts/dock.prm

>  <Rbt.Receptor>
/extra/banzai2/j5wagner/CELPP/2016_10_17_rdock_implementation/normal_run/tutorialVideo/tutorial_rdock_implementation/full_week_run/4-docking/5wrn/hiResHolo_1ypv_tech_prep/rDockGridGenInput.prm

>  <SCORE>
-15.0133

>  <SCORE.INTER>
-14.5718

>  <SCORE.INTER.CONST>
1

>  <SCORE.INTER.POLAR>
-2.96218

>  <SCORE.INTER.REPUL>
0

>  <SCORE.INTER.ROT>
4

>  <SCORE.INTER.VDW>
-13.9004

>  <SCORE.INTER.norm>
-0.728591

>  <SCORE.INTRA>
1.13652

>  <SCORE.INTRA.DIHEDRAL>
3.12886

>  <SCORE.INTRA.DIHEDRAL.0>
8.98184

>  <SCORE.INTRA.POLAR>
0

>  <SCORE.INTRA.POLAR.0>
0

>  <SCORE.INTRA.REPUL>
0

>  <SCORE.INTRA.REPUL.0>
0

>  <SCORE.INTRA.VDW>
-0.427912

>  <SCORE.INTRA.VDW.0>
-1.60828

>  <SCORE.INTRA.norm>
0.0568259

>  <SCORE.RESTR>
1.75695

>  <SCORE.RESTR.CAVITY>
1.75695

>  <SCORE.RESTR.norm>
0.0878474

>  <SCORE.SYSTEM>
-3.33496

>  <SCORE.SYSTEM.CONST>
0

>  <SCORE.SYSTEM.DIHEDRAL>
3.0799

>  <SCORE.SYSTEM.POLAR>
-1.69826

>  <SCORE.SYSTEM.REPUL>
0.599789

>  <SCORE.SYSTEM.VDW>
-2.09977

>  <SCORE.SYSTEM.norm>
-0.166748

>  <SCORE.heavy>
20

>  <SCORE.norm>
-0.750666

$$$$

  rDOCK(R)          3D
libRbt.so/2013.1/901 2013/11/27
 25 26  0  0  0  0  0  0  0  0999 V2000
   -2.1929   -2.5397   12.4691 C   0  0  0  0  0  0
   -1.6686   -2.9108   11.2164 O   0  0  0  0  0  0
   -3.6665   -2.8149   12.5844 C   0  0  0  0  0  0
   -3.8428   -3.1675   14.0631 C   0  0  0  0  0  0
   -4.5785   -2.0938   14.7704 N   0  0  0  0  0  0
   -4.1013   -0.8075   14.7539 C   0  0  0  0  0  0
   -4.7649    0.2125   15.4304 C   0  0  0  0  0  0
   -5.9352   -0.0953   16.1210 C   0  0  0  0  0  0
   -6.5872    0.8155   16.7711 N   0  0  0  0  0  0
   -6.4014   -1.3667   16.1038 N   0  0  0  0  0  0
   -5.7553   -2.3602   15.4383 C   0  0  0  0  0  0
   -6.3322   -3.6332   15.4536 O   0  0  0  0  0  0
   -2.5715   -3.3899   14.6494 O   0  0  0  0  0  0
   -1.6098   -3.3515   13.6212 C   0  0  0  0  0  0
   -0.3039   -2.7480   14.1576 C   0  0  0  0  0  0
    0.3990   -2.0847   13.1261 O   0  0  0  0  0  0
    0.6053   -0.4352   13.5198 P   0  0  0  0  0  0
   -0.5199    0.0216   14.4219 O   0  0  0  0  0  0
    2.0956   -0.1782   14.2842 O   0  0  0  0  0  0
    0.5631    0.4720   12.0931 O   0  0  0  0  0  0
   -2.1179   -2.3684   10.5165 H   0  0  0  0  0  0
   -6.2702    1.8109   16.8119 H   0  0  0  0  0  0
   -5.8069   -4.4936   15.5237 H   0  0  0  0  0  0
    2.0721    0.7632   14.5913 H   0  0  0  0  0  0
    0.9745   -0.1158   11.4103 H   0  0  0  0  0  0
  1  2  1  0  0  0
  1  3  1  0  0  0
  3  4  1  0  0  0
  4  5  1  0  0  0
  5  6  1  0  0  0
  6  7  2  0  0  0
  7  8  1  0  0  0
  8  9  2  0  0  0
  8 10  1  0  0  0
 10 11  2  0  0  0
 11 12  1  0  0  0
  4 13  1  0  0  0
 13 14  1  0  0  0
 14 15  1  0  0  0
 15 16  1  0  0  0
 16 17  1  0  0  0
 17 18  2  0  0  0
 17 19  1  0  0  0
 17 20  1  0  0  0
 14  1  1  0  0  0
 11  5  1  0  0  0
  2 21  1  0  0  0
  9 22  1  0  0  0
 12 23  1  0  0  0
 19 24  1  0  0  0
 20 25  1  0  0  0
M  END
>  <CHROM.0>
175.36574342,-57.12265285,65.68796705,69.63382532,1.32524556,178.18894322
65.32535785,-179.04020280,3.15360779,35.37059091

>  <CHROM.1>
62.04773747,-56.78319137,38.82699524,-30.65196985,120.14935033,-27.90263336
-171.95114584,-33.66532916,-2.53307552,-1.54756889,14.15776175,0.10279683
-0.36133697,-2.64633901

>  <RI>
1.20554e+07

>  <Rbt.Current_Directory>
/extra/banzai2/j5wagner/CELPP/2016_10_17_rdock_implementation/normal_run/tutorialVideo/tutorial_rdock_implementation/full_week_run/4-docking/5wrn/hiResHolo_1ypv_docking

>  <Rbt.Executable>
rbdock ($Id: //depot/dev/client3/rdock/2013.1/src/exe/rbdock.cxx#4 $)

>  <Rbt.Library>
libRbt.so (2013.1, Build901 2013/11/27)

>  <Rbt.Parameter_File>
/home/j5wagner/env_00/source/rDock/rDock_2013.1_src//data/scripts/dock.prm

>  <Rbt.Receptor>
/extra/banzai2/j5wagner/CELPP/2016_10_17_rdock_implementation/normal_run/tutorialVideo/tutorial_rdock_implementation/full_week_run/4-docking/5wrn/hiResHolo_1ypv_tech_prep/rDockGridGenInput.prm

>  <SCORE>
-13.7921

>  <SCORE.INTER>
-14.8337

>  <SCORE.INTER.CONST>
1

>  <SCORE.INTER.POLAR>
-2.74312

>  <SCORE.INTER.REPUL>
0.077947

>  <SCORE.INTER.ROT>
4

>  <SCORE.INTER.VDW>
-15.2968

>  <SCORE.INTER.norm>
-0.741683

>  <SCORE.INTRA>
4.14648

>  <SCORE.INTRA.DIHEDRAL>
7.61281

>  <SCORE.INTRA.DIHEDRAL.0>
8.98184

>  <SCORE.INTRA.POLAR>
0

>  <SCORE.INTRA.POLAR.0>
0

>  <SCORE.INTRA.REPUL>
0

>  <SCORE.INTRA.REPUL.0>
0

>  <SCORE.INTRA.VDW>
0.34007

>  <SCORE.INTRA.VDW.0>
-1.60828

>  <SCORE.INTRA.norm>
0.207324

>  <SCORE.RESTR>
1.43827

>  <SCORE.RESTR.CAVITY>
1.43827

>  <SCORE.RESTR.norm>
0.0719136

>  <SCORE.SYSTEM>
-4.5432

>  <SCORE.SYSTEM.CONST>
0

>  <SCORE.SYSTEM.DIHEDRAL>
2.23866

>  <SCORE.SYSTEM.POLAR>
-1.34448

>  <SCORE.SYSTEM.REPUL>
0.113856

>  <SCORE.SYSTEM.VDW>
-1.66056

>  <SCORE.SYSTEM.norm>
-0.22716

>  <SCORE.heavy>
20

>  <SCORE.norm>
-0.689606

$$$$

  rDOCK(R)          3D
libRbt.so/2013.1/901 2013/11/27
 25 26  0  0  0  0  0  0  0  0999 V2000
   -2.4960   -2.8902   13.6367 C   0  0  0  0  0  0
   -1.1068   -3.1100   13.6992 O   0  0  0  0  0  0
   -2.9430   -1.7575   14.5186 C   0  0  0  0  0  0
   -4.1188   -1.1548   13.7464 C   0  0  0  0  0  0
   -5.3965   -1.4328   14.4425 N   0  0  0  0  0  0
   -6.2209   -0.3978   14.8052 C   0  0  0  0  0  0
   -7.4155   -0.6349   15.4799 C   0  0  0  0  0  0
   -7.7666   -1.9509   15.7738 C   0  0  0  0  0  0
   -8.8639   -2.2251   16.4048 N   0  0  0  0  0  0
   -6.9498   -2.9587   15.3851 N   0  0  0  0  0  0
   -5.7866   -2.7257   14.7216 C   0  0  0  0  0  0
   -5.0271   -3.8336   14.3351 O   0  0  0  0  0  0
   -4.1308   -1.6724   12.4267 O   0  0  0  0  0  0
   -2.9653   -2.4443   12.2557 C   0  0  0  0  0  0
   -3.2637   -3.6319   11.3295 C   0  0  0  0  0  0
   -4.0348   -4.6069   12.0023 O   0  0  0  0  0  0
   -5.3551   -5.0877   11.0306 P   0  0  0  0  0  0
   -6.5101   -4.1299   11.2241 O   0  0  0  0  0  0
   -4.9157   -5.1355    9.3948 O   0  0  0  0  0  0
   -5.8439   -6.6349   11.5073 O   0  0  0  0  0  0
   -0.8791   -3.8496   13.0771 H   0  0  0  0  0  0
   -9.5285   -1.4834   16.7228 H   0  0  0  0  0  0
   -4.7468   -4.0254   13.3834 H   0  0  0  0  0  0
   -4.2795   -5.8908    9.3178 H   0  0  0  0  0  0
   -5.0477   -7.2054   11.3607 H   0  0  0  0  0  0
  1  2  1  0  0  0
  1  3  1  0  0  0
  3  4  1  0  0  0
  4  5  1  0  0  0
  5  6  1  0  0  0
  6  7  2  0  0  0
  7  8  1  0  0  0
  8  9  2  0  0  0
  8 10  1  0  0  0
 10 11  2  0  0  0
 11 12  1  0  0  0
  4 13  1  0  0  0
 13 14  1  0  0  0
 14 15  1  0  0  0
 15 16  1  0  0  0
 16 17  1  0  0  0
 17 18  2  0  0  0
 17 19  1  0  0  0
 17 20  1  0  0  0
 14  1  1  0  0  0
 11  5  1  0  0  0
  2 21  1  0  0  0
  9 22  1  0  0  0
 12 23  1  0  0  0
 19 24  1  0  0  0
 20 25  1  0  0  0
M  END
>  <CHROM.0>
-178.24910533,175.93507292,68.42569695,-164.49306045,174.04555358,9.56493762
67.88179956,63.70252638,-153.58233921,179.06430976

>  <CHROM.1>
-178.40608256,123.67634980,-56.05884775,46.24666949,132.14702426,-85.04344120
68.42351032,-60.15244129,-5.02871346,-3.15282340,13.17108147,-1.13317167
0.23266051,0.82554794

>  <RI>
1.20554e+07

>  <Rbt.Current_Directory>
/extra/banzai2/j5wagner/CELPP/2016_10_17_rdock_implementation/normal_run/tutorialVideo/tutorial_rdock_implementation/full_week_run/4-docking/5wrn/hiResHolo_1ypv_docking

>  <Rbt.Executable>
rbdock ($Id: //depot/dev/client3/rdock/2013.1/src/exe/rbdock.cxx#4 $)

>  <Rbt.Library>
libRbt.so (2013.1, Build901 2013/11/27)

>  <Rbt.Parameter_File>
/home/j5wagner/env_00/source/rDock/rDock_2013.1_src//data/scripts/dock.prm

>  <Rbt.Receptor>
/extra/banzai2/j5wagner/CELPP/2016_10_17_rdock_implementation/normal_run/tutorialVideo/tutorial_rdock_implementation/full_week_run/4-docking/5wrn/hiResHolo_1ypv_tech_prep/rDockGridGenInput.prm

>  <SCORE>
-13.436

>  <SCORE.INTER>
-11.5995

>  <SCORE.INTER.CONST>
1

>  <SCORE.INTER.POLAR>
-1.81589

>  <SCORE.INTER.REPUL>
0

>  <SCORE.INTER.ROT>
4

>  <SCORE.INTER.VDW>
-14.8255

>  <SCORE.INTER.norm>
-0.579976

>  <SCORE.INTRA>
-1.33633

>  <SCORE.INTRA.DIHEDRAL>
4.94846

>  <SCORE.INTRA.DIHEDRAL.0>
8.98184

>  <SCORE.INTRA.POLAR>
-1

>  <SCORE.INTRA.POLAR.0>
0

>  <SCORE.INTRA.REPUL>
0

>  <SCORE.INTRA.REPUL.0>
0

>  <SCORE.INTRA.VDW>
-0.410558

>  <SCORE.INTRA.VDW.0>
-1.60828

>  <SCORE.INTRA.norm>
-0.0668163

>  <SCORE.RESTR>
1.16802

>  <SCORE.RESTR.CAVITY>
1.16802

>  <SCORE.RESTR.norm>
0.0584012

>  <SCORE.SYSTEM>
-1.66814

>  <SCORE.SYSTEM.CONST>
0

>  <SCORE.SYSTEM.DIHEDRAL>
2.51809

>  <SCORE.SYSTEM.POLAR>
-1.63473

>  <SCORE.SYSTEM.REPUL>
0.897579

>  <SCORE.SYSTEM.VDW>
-1.857

>  <SCORE.SYSTEM.norm>
-0.0834068

>  <SCORE.heavy>
20

>  <SCORE.norm>
-0.671798

$$$$

  rDOCK(R)          3D
libRbt.so/2013.1/901 2013/11/27
 25 26  0  0  0  0  0  0  0  0999 V2000
    5.9819    9.1307   10.8961 C   0  0  0  0  0  0
    5.6774    9.9677    9.8058 O   0  0  0  0  0  0
    6.7483    9.8428   11.9760 C   0  0  0  0  0  0
    6.2573    9.1671   13.2583 C   0  0  0  0  0  0
    7.3294    8.3349   13.8520 N   0  0  0  0  0  0
    7.4589    7.0184   13.4878 C   0  0  0  0  0  0
    8.4454    6.2125   14.0498 C   0  0  0  0  0  0
    9.3110    6.7721   14.9874 C   0  0  0  0  0  0
   10.2417    6.0642   15.5442 N   0  0  0  0  0  0
    9.1806    8.0799   15.3141 N   0  0  0  0  0  0
    8.2204    8.8666   14.7603 C   0  0  0  0  0  0
    8.1863   10.2118   15.1385 O   0  0  0  0  0  0
    5.1060    8.3915   12.9712 O   0  0  0  0  0  0
    4.7403    8.6413   11.6342 C   0  0  0  0  0  0
    4.1567    7.3650   11.0114 C   0  0  0  0  0  0
    5.1897    6.5259   10.5350 O   0  0  0  0  0  0
    4.8672    6.0494    8.9264 P   0  0  0  0  0  0
    4.3308    7.2256    8.1406 O   0  0  0  0  0  0
    6.2664    5.4504    8.1816 O   0  0  0  0  0  0
    3.6975    4.8281    8.9470 O   0  0  0  0  0  0
    6.5261   10.3448    9.4546 H   0  0  0  0  0  0
   10.3848    5.0524   15.3235 H   0  0  0  0  0  0
    7.4929   10.8737   14.8189 H   0  0  0  0  0  0
    6.4041    4.5502    8.5711 H   0  0  0  0  0  0
    4.1155    4.0896    9.4575 H   0  0  0  0  0  0
  1  2  1  0  0  0
  1  3  1  0  0  0
  3  4  1  0  0  0
  4  5  1  0  0  0
  5  6  1  0  0  0
  6  7  2  0  0  0
  7  8  1  0  0  0
  8  9  2  0  0  0
  8 10  1  0  0  0
 10 11  2  0  0  0
 11 12  1  0  0  0
  4 13  1  0  0  0
 13 14  1  0  0  0
 14 15  1  0  0  0
 15 16  1  0  0  0
 16 17  1  0  0  0
 17 18  2  0  0  0
 17 19  1  0  0  0
 17 20  1  0  0  0
 14  1  1  0  0  0
 11  5  1  0  0  0
  2 21  1  0  0  0
  9 22  1  0  0  0
 12 23  1  0  0  0
 19 24  1  0  0  0
 20 25  1  0  0  0
M  END
>  <CHROM.0>
-55.82882396,-54.58939041,179.72564713,-43.73239186,-46.99428424,0.58160824
179.80414801,63.45110859,156.88182885,179.74816644

>  <CHROM.1>
56.56653900,-89.63797979,3.17092943,35.88211697,-129.94653404,41.37482304
74.75994660,-61.44739793,6.40477204,7.58848676,11.86347260,2.58147337,0.87534343
-2.72287833

>  <RI>
1.20554e+07

>  <Rbt.Current_Directory>
/extra/banzai2/j5wagner/CELPP/2016_10_17_rdock_implementation/normal_run/tutorialVideo/tutorial_rdock_implementation/full_week_run/4-docking/5wrn/hiResHolo_1ypv_docking

>  <Rbt.Executable>
rbdock ($Id: //depot/dev/client3/rdock/2013.1/src/exe/rbdock.cxx#4 $)

>  <Rbt.Library>
libRbt.so (2013.1, Build901 2013/11/27)

>  <Rbt.Parameter_File>
/home/j5wagner/env_00/source/rDock/rDock_2013.1_src//data/scripts/dock.prm

>  <Rbt.Receptor>
/extra/banzai2/j5wagner/CELPP/2016_10_17_rdock_implementation/normal_run/tutorialVideo/tutorial_rdock_implementation/full_week_run/4-docking/5wrn/hiResHolo_1ypv_tech_prep/rDockGridGenInput.prm

>  <SCORE>
-13.1795

>  <SCORE.INTER>
-9.1061

>  <SCORE.INTER.CONST>
1

>  <SCORE.INTER.POLAR>
-2.58273

>  <SCORE.INTER.REPUL>
0

>  <SCORE.INTER.ROT>
4

>  <SCORE.INTER.VDW>
-9.72482

>  <SCORE.INTER.norm>
-0.455305

>  <SCORE.INTRA>
1.5538

>  <SCORE.INTRA.DIHEDRAL>
3.02058

>  <SCORE.INTRA.DIHEDRAL.0>
8.98184

>  <SCORE.INTRA.POLAR>
0

>  <SCORE.INTRA.POLAR.0>
0

>  <SCORE.INTRA.REPUL>
0

>  <SCORE.INTRA.REPUL.0>
0

>  <SCORE.INTRA.VDW>
0.0435104

>  <SCORE.INTRA.VDW.0>
-1.60828

>  <SCORE.INTRA.norm>
0.07769

>  <SCORE.RESTR>
0.873016

>  <SCORE.RESTR.CAVITY>
0.873016

>  <SCORE.RESTR.norm>
0.0436508

>  <SCORE.SYSTEM>
-6.50024

>  <SCORE.SYSTEM.CONST>
0

>  <SCORE.SYSTEM.DIHEDRAL>
4.14935

>  <SCORE.SYSTEM.POLAR>
-2.70148

>  <SCORE.SYSTEM.REPUL>
0.523447

>  <SCORE.SYSTEM.VDW>
-2.00712

>  <SCORE.SYSTEM.norm>
-0.325012

>  <SCORE.heavy>
20

>  <SCORE.norm>
-0.658976

$$$$

  rDOCK(R)          3D
libRbt.so/2013.1/901 2013/11/27
 25 26  0  0  0  0  0  0  0  0999 V2000
    5.9265    8.1256   12.9899 C   0  0  0  0  0  0
    4.6741    7.7298   12.4833 O   0  0  0  0  0  0
    6.5766    7.0579   13.8252 C   0  0  0  0  0  0
    8.0692    7.2624   13.5563 C   0  0  0  0  0  0
    8.7463    7.8005   14.7589 N   0  0  0  0  0  0
    8.3401    8.9942   15.3001 C   0  0  0  0  0  0
    8.9768    9.5290   16.4167 C   0  0  0  0  0  0
   10.0343    8.8220   16.9852 C   0  0  0  0  0  0
   10.6639    9.2785   18.0208 N   0  0  0  0  0  0
   10.4029    7.6340   16.4493 N   0  0  0  0  0  0
    9.7765    7.1107   15.3625 C   0  0  0  0  0  0
   10.2092    5.8637   14.9024 O   0  0  0  0  0  0
    8.2337    8.1272   12.4452 O   0  0  0  0  0  0
    6.9600    8.3694   11.8951 C   0  0  0  0  0  0
    6.8992    9.8012   11.3440 C   0  0  0  0  0  0
    5.7322    9.9872   10.5683 O   0  0  0  0  0  0
    5.7252   11.5508    9.8800 P   0  0  0  0  0  0
    4.6960   12.4134   10.5766 O   0  0  0  0  0  0
    7.2545   12.2706    9.9995 O   0  0  0  0  0  0
    5.3120   11.4214    8.2451 O   0  0  0  0  0  0
    4.0524    7.6069   13.2477 H   0  0  0  0  0  0
   10.4154   10.1880   18.4724 H   0  0  0  0  0  0
   10.6012    5.1450   15.4947 H   0  0  0  0  0  0
    7.8512   11.7089    9.4431 H   0  0  0  0  0  0
    4.3245   11.3463    8.2416 H   0  0  0  0  0  0
  1  2  1  0  0  0
  1  3  1  0  0  0
  3  4  1  0  0  0
  4  5  1  0  0  0
  5  6  1  0  0  0
  6  7  2  0  0  0
  7  8  1  0  0  0
  8  9  2  0  0  0
  8 10  1  0  0  0
 10 11  2  0  0  0
 11 12  1  0  0  0
  4 13  1  0  0  0
 13 14  1  0  0  0
 14 15  1  0  0  0
 15 16  1  0  0  0
 16 17  1  0  0  0
 17 18  2  0  0  0
 17 19  1  0  0  0
 17 20  1  0  0  0
 14  1  1  0  0  0
 11  5  1  0  0  0
  2 21  1  0  0  0
  9 22  1  0  0  0
 12 23  1  0  0  0
 19 24  1  0  0  0
 20 25  1  0  0  0
M  END
>  <CHROM.0>
-56.72750808,-52.59364018,-176.58861098,78.02728259,-165.45448817,-149.08833882
69.80580233,69.05915473,-165.22508861,-172.05920020

>  <CHROM.1>
65.29862579,-58.94575268,-149.44287090,-71.24508532,-176.42051120,-107.60207495
64.42828783,80.90028277,7.47217698,9.15870423,12.96681101,2.47864400,-0.87977884
-0.29271682

>  <RI>
1.20554e+07

>  <Rbt.Current_Directory>
/extra/banzai2/j5wagner/CELPP/2016_10_17_rdock_implementation/normal_run/tutorialVideo/tutorial_rdock_implementation/full_week_run/4-docking/5wrn/hiResHolo_1ypv_docking

>  <Rbt.Executable>
rbdock ($Id: //depot/dev/client3/rdock/2013.1/src/exe/rbdock.cxx#4 $)

>  <Rbt.Library>
libRbt.so (2013.1, Build901 2013/11/27)

>  <Rbt.Parameter_File>
/home/j5wagner/env_00/source/rDock/rDock_2013.1_src//data/scripts/dock.prm

>  <Rbt.Receptor>
/extra/banzai2/j5wagner/CELPP/2016_10_17_rdock_implementation/normal_run/tutorialVideo/tutorial_rdock_implementation/full_week_run/4-docking/5wrn/hiResHolo_1ypv_tech_prep/rDockGridGenInput.prm

>  <SCORE>
-12.9296

>  <SCORE.INTER>
-9.04299

>  <SCORE.INTER.CONST>
1

>  <SCORE.INTER.POLAR>
-1.06721

>  <SCORE.INTER.REPUL>
0.00740794

>  <SCORE.INTER.ROT>
4

>  <SCORE.INTER.VDW>
-14.8515

>  <SCORE.INTER.norm>
-0.452149

>  <SCORE.INTRA>
-0.382424

>  <SCORE.INTRA.DIHEDRAL>
-1.82013

>  <SCORE.INTRA.DIHEDRAL.0>
8.98184

>  <SCORE.INTRA.POLAR>
0

>  <SCORE.INTRA.POLAR.0>
0

>  <SCORE.INTRA.REPUL>
0

>  <SCORE.INTRA.REPUL.0>
0

>  <SCORE.INTRA.VDW>
0.527643

>  <SCORE.INTRA.VDW.0>
-1.60828

>  <SCORE.INTRA.norm>
-0.0191212

>  <SCORE.RESTR>
2.64002

>  <SCORE.RESTR.CAVITY>
2.64002

>  <SCORE.RESTR.norm>
0.132001

>  <SCORE.SYSTEM>
-6.14421

>  <SCORE.SYSTEM.CONST>
0

>  <SCORE.SYSTEM.DIHEDRAL>
3.96089

>  <SCORE.SYSTEM.POLAR>
-2.63331

>  <SCORE.SYSTEM.REPUL>
0.5423

>  <SCORE.SYSTEM.VDW>
-1.88288

>  <SCORE.SYSTEM.norm>
-0.307211

>  <SCORE.heavy>
20

>  <SCORE.norm>
-0.64648

$$$$

  rDOCK(R)          3D
libRbt.so/2013.1/901 2013/11/27
 25 26  0  0  0  0  0  0  0  0999 V2000
   -4.5415   -0.7031   15.2983 C   0  0  0  0  0  0
   -4.9102    0.3836   16.1138 O   0  0  0  0  0  0
   -3.2518   -0.4638   14.5635 C   0  0  0  0  0  0
   -2.6311   -1.8602   14.4804 C   0  0  0  0  0  0
   -2.6580   -2.3600   13.0862 N   0  0  0  0  0  0
   -3.8183   -2.8706   12.5613 C   0  0  0  0  0  0
   -3.8601   -3.3661   11.2609 C   0  0  0  0  0  0
   -2.6983   -3.3253   10.4929 C   0  0  0  0  0  0
   -2.6823   -3.7787    9.2799 N   0  0  0  0  0  0
   -1.5705   -2.7947   11.0228 N   0  0  0  0  0  0
   -1.5329   -2.3064   12.2906 C   0  0  0  0  0  0
   -0.3304   -1.7505   12.7363 O   0  0  0  0  0  0
   -3.3242   -2.7366   15.3527 O   0  0  0  0  0  0
   -4.2428   -1.9690   16.0948 C   0  0  0  0  0  0
   -5.5060   -2.7976   16.3685 C   0  0  0  0  0  0
   -6.3601   -2.7904   15.2422 O   0  0  0  0  0  0
   -7.5180   -1.5428   15.3886 P   0  0  0  0  0  0
   -7.5659   -1.0526   16.8189 O   0  0  0  0  0  0
   -7.1523   -0.2541   14.3509 O   0  0  0  0  0  0
   -9.0363   -2.1610   14.9727 O   0  0  0  0  0  0
   -5.0013    1.1886   15.5396 H   0  0  0  0  0  0
   -3.5269   -4.1945    8.8253 H   0  0  0  0  0  0
   -0.1453   -1.4928   13.6957 H   0  0  0  0  0  0
   -8.0242    0.0433   13.9873 H   0  0  0  0  0  0
   -9.6790   -1.6214   15.4987 H   0  0  0  0  0  0
  1  2  1  0  0  0
  1  3  1  0  0  0
  3  4  1  0  0  0
  4  5  1  0  0  0
  5  6  1  0  0  0
  6  7  2  0  0  0
  7  8  1  0  0  0
  8  9  2  0  0  0
  8 10  1  0  0  0
 10 11  2  0  0  0
 11 12  1  0  0  0
  4 13  1  0  0  0
 13 14  1  0  0  0
 14 15  1  0  0  0
 15 16  1  0  0  0
 16 17  1  0  0  0
 17 18  2  0  0  0
 17 19  1  0  0  0
 17 20  1  0  0  0
 14  1  1  0  0  0
 11  5  1  0  0  0
  2 21  1  0  0  0
  9 22  1  0  0  0
 12 23  1  0  0  0
 19 24  1  0  0  0
 20 25  1  0  0  0
M  END
>  <CHROM.0>
-177.98343408,179.43258033,-178.40260368,-163.21784879,-165.70289405,13.50825973
66.65429151,63.67823254,17.67887834,-178.04254011

>  <CHROM.1>
58.77066488,-78.70067859,10.51959033,39.02493696,-93.73615815,-15.81263940
140.01944079,151.08010173,-4.54863794,-1.94793975,14.05154107,-2.43568178
-0.11095746,-2.02233021

>  <RI>
1.20554e+07

>  <Rbt.Current_Directory>
/extra/banzai2/j5wagner/CELPP/2016_10_17_rdock_implementation/normal_run/tutorialVideo/tutorial_rdock_implementation/full_week_run/4-docking/5wrn/hiResHolo_1ypv_docking

>  <Rbt.Executable>
rbdock ($Id: //depot/dev/client3/rdock/2013.1/src/exe/rbdock.cxx#4 $)

>  <Rbt.Library>
libRbt.so (2013.1, Build901 2013/11/27)

>  <Rbt.Parameter_File>
/home/j5wagner/env_00/source/rDock/rDock_2013.1_src//data/scripts/dock.prm

>  <Rbt.Receptor>
/extra/banzai2/j5wagner/CELPP/2016_10_17_rdock_implementation/normal_run/tutorialVideo/tutorial_rdock_implementation/full_week_run/4-docking/5wrn/hiResHolo_1ypv_tech_prep/rDockGridGenInput.prm

>  <SCORE>
-12.8442

>  <SCORE.INTER>
-13.816

>  <SCORE.INTER.CONST>
1

>  <SCORE.INTER.POLAR>
-2.22633

>  <SCORE.INTER.REPUL>
0

>  <SCORE.INTER.ROT>
4

>  <SCORE.INTER.VDW>
-15.6464

>  <SCORE.INTER.norm>
-0.690798

>  <SCORE.INTRA>
2.49445

>  <SCORE.INTRA.DIHEDRAL>
4.3382

>  <SCORE.INTRA.DIHEDRAL.0>
8.98184

>  <SCORE.INTRA.POLAR>
0

>  <SCORE.INTRA.POLAR.0>
0

>  <SCORE.INTRA.REPUL>
0

>  <SCORE.INTRA.REPUL.0>
0

>  <SCORE.INTRA.VDW>
0.325352

>  <SCORE.INTRA.VDW.0>
-1.60828

>  <SCORE.INTRA.norm>
0.124723

>  <SCORE.RESTR>
0.136602

>  <SCORE.RESTR.CAVITY>
0.136602

>  <SCORE.RESTR.norm>
0.00683012

>  <SCORE.SYSTEM>
-1.65928

>  <SCORE.SYSTEM.CONST>
0

>  <SCORE.SYSTEM.DIHEDRAL>
1.99621

>  <SCORE.SYSTEM.POLAR>
-1.60327

>  <SCORE.SYSTEM.REPUL>
0.839392

>  <SCORE.SYSTEM.VDW>
-1.40323

>  <SCORE.SYSTEM.norm>
-0.0829638

>  <SCORE.heavy>
20

>  <SCORE.norm>
-0.642209

$$$$

  rDOCK(R)          3D
libRbt.so/2013.1/901 2013/11/27
 25 26  0  0  0  0  0  0  0  0999 V2000
    4.2296    6.8018   10.2054 C   0  0  0  0  0  0
    5.3059    6.2476    9.4868 O   0  0  0  0  0  0
    3.3661    5.7551   10.8530 C   0  0  0  0  0  0
    2.8896    6.4388   12.1366 C   0  0  0  0  0  0
    1.4435    6.7499   12.0551 N   0  0  0  0  0  0
    0.9575    7.9080   12.6073 C   0  0  0  0  0  0
   -0.4010    8.2093   12.5616 C   0  0  0  0  0  0
   -1.2631    7.3134   11.9326 C   0  0  0  0  0  0
   -2.5359    7.5436   11.8680 N   0  0  0  0  0  0
   -0.7584    6.1881   11.3731 N   0  0  0  0  0  0
    0.5688    5.8982   11.4138 C   0  0  0  0  0  0
    0.9970    4.7282   10.7803 O   0  0  0  0  0  0
    3.6546    7.6115   12.3580 O   0  0  0  0  0  0
    4.6801    7.6457   11.3932 C   0  0  0  0  0  0
    4.9694    9.1010   10.9985 C   0  0  0  0  0  0
    5.8638    9.1521    9.9050 O   0  0  0  0  0  0
    6.1859   10.7758    9.4826 P   0  0  0  0  0  0
    6.9784   10.8234    8.1948 O   0  0  0  0  0  0
    4.7460   11.6510    9.3043 O   0  0  0  0  0  0
    7.1033   11.4844   10.7141 O   0  0  0  0  0  0
    5.7769    6.9824    9.0132 H   0  0  0  0  0  0
   -2.9730    8.3986   12.2815 H   0  0  0  0  0  0
    0.3769    4.0558   10.3507 H   0  0  0  0  0  0
    4.8568   12.4540    9.8734 H   0  0  0  0  0  0
    6.4985   11.5027   11.4981 H   0  0  0  0  0  0
  1  2  1  0  0  0
  1  3  1  0  0  0
  3  4  1  0  0  0
  4  5  1  0  0  0
  5  6  1  0  0  0
  6  7  2  0  0  0
  7  8  1  0  0  0
  8  9  2  0  0  0
  8 10  1  0  0  0
 10 11  2  0  0  0
 11 12  1  0  0  0
  4 13  1  0  0  0
 13 14  1  0  0  0
 14 15  1  0  0  0
 15 16  1  0  0  0
 16 17  1  0  0  0
 17 18  2  0  0  0
 17 19  1  0  0  0
 17 20  1  0  0  0
 14  1  1  0  0  0
 11  5  1  0  0  0
  2 21  1  0  0  0
  9 22  1  0  0  0
 12 23  1  0  0  0
 19 24  1  0  0  0
 20 25  1  0  0  0
M  END
>  <CHROM.0>
62.70317902,-54.43003135,179.68680348,-166.42286192,-4.61149216,13.66470106
-178.60625928,58.36225450,39.67794940,-176.47638344

>  <CHROM.1>
174.37099124,-143.20376928,176.14124308,-52.29870451,-179.60829760,-171.84183030
128.06905521,-65.88713927,3.26867165,8.13913159,10.83065266,-0.52775476,-0.31119694
3.11359163

>  <RI>
1.20554e+07

>  <Rbt.Current_Directory>
/extra/banzai2/j5wagner/CELPP/2016_10_17_rdock_implementation/normal_run/tutorialVideo/tutorial_rdock_implementation/full_week_run/4-docking/5wrn/hiResHolo_1ypv_docking

>  <Rbt.Executable>
rbdock ($Id: //depot/dev/client3/rdock/2013.1/src/exe/rbdock.cxx#4 $)

>  <Rbt.Library>
libRbt.so (2013.1, Build901 2013/11/27)

>  <Rbt.Parameter_File>
/home/j5wagner/env_00/source/rDock/rDock_2013.1_src//data/scripts/dock.prm

>  <Rbt.Receptor>
/extra/banzai2/j5wagner/CELPP/2016_10_17_rdock_implementation/normal_run/tutorialVideo/tutorial_rdock_implementation/full_week_run/4-docking/5wrn/hiResHolo_1ypv_tech_prep/rDockGridGenInput.prm

>  <SCORE>
-11.6352

>  <SCORE.INTER>
-6.12059

>  <SCORE.INTER.CONST>
1

>  <SCORE.INTER.POLAR>
-3.80832

>  <SCORE.INTER.REPUL>
0.354423

>  <SCORE.INTER.ROT>
4

>  <SCORE.INTER.VDW>
-4.34442

>  <SCORE.INTER.norm>
-0.30603

>  <SCORE.INTRA>
0.377679

>  <SCORE.INTRA.DIHEDRAL>
-3.72649

>  <SCORE.INTRA.DIHEDRAL.0>
8.98184

>  <SCORE.INTRA.POLAR>
-0.186073

>  <SCORE.INTRA.POLAR.0>
0

>  <SCORE.INTRA.REPUL>
0

>  <SCORE.INTRA.REPUL.0>
0

>  <SCORE.INTRA.VDW>
2.87357

>  <SCORE.INTRA.VDW.0>
-1.60828

>  <SCORE.INTRA.norm>
0.0188839

>  <SCORE.RESTR>
1.15756

>  <SCORE.RESTR.CAVITY>
1.15756

>  <SCORE.RESTR.norm>
0.057878

>  <SCORE.SYSTEM>
-7.04981

>  <SCORE.SYSTEM.CONST>
0

>  <SCORE.SYSTEM.DIHEDRAL>
2.91956

>  <SCORE.SYSTEM.POLAR>
-2.72951

>  <SCORE.SYSTEM.REPUL>
0.525719

>  <SCORE.SYSTEM.VDW>
-1.85784

>  <SCORE.SYSTEM.norm>
-0.352491

>  <SCORE.heavy>
20

>  <SCORE.norm>
-0.581758

$$$$

  rDOCK(R)          3D
libRbt.so/2013.1/901 2013/11/27
 25 26  0  0  0  0  0  0  0  0999 V2000
   -2.2859   -0.2152   15.0563 C   0  0  0  0  0  0
   -1.2605    0.7489   15.0246 O   0  0  0  0  0  0
   -3.5377    0.2484   14.3645 C   0  0  0  0  0  0
   -4.1115   -1.0423   13.7756 C   0  0  0  0  0  0
   -5.3476   -1.4366   14.4903 N   0  0  0  0  0  0
   -6.1680   -0.4760   15.0259 C   0  0  0  0  0  0
   -7.3228   -0.8252   15.7207 C   0  0  0  0  0  0
   -7.6387   -2.1756   15.8553 C   0  0  0  0  0  0
   -8.6981   -2.5537   16.4972 N   0  0  0  0  0  0
   -6.8277   -3.1059   15.2979 N   0  0  0  0  0  0
   -5.7035   -2.7630   14.6152 C   0  0  0  0  0  0
   -4.9482   -3.7942   14.0495 O   0  0  0  0  0  0
   -3.1329   -2.0659   13.8408 O   0  0  0  0  0  0
   -1.9309   -1.4852   14.2900 C   0  0  0  0  0  0
   -1.1624   -2.4935   15.1560 C   0  0  0  0  0  0
   -0.0301   -1.8844   15.7435 O   0  0  0  0  0  0
    1.0575   -3.0774   16.3024 P   0  0  0  0  0  0
    1.9687   -2.4877   17.3561 O   0  0  0  0  0  0
    0.2214   -4.4049   16.9427 O   0  0  0  0  0  0
    1.9991   -3.6051   15.0004 O   0  0  0  0  0  0
   -1.0769    0.9789   14.0763 H   0  0  0  0  0  0
   -9.3566   -1.8745   16.9422 H   0  0  0  0  0  0
   -4.0336   -3.6682   13.6388 H   0  0  0  0  0  0
   -0.3508   -4.0313   17.6597 H   0  0  0  0  0  0
    1.3442   -3.8253   14.2907 H   0  0  0  0  0  0
  1  2  1  0  0  0
  1  3  1  0  0  0
  3  4  1  0  0  0
  4  5  1  0  0  0
  5  6  1  0  0  0
  6  7  2  0  0  0
  7  8  1  0  0  0
  8  9  2  0  0  0
  8 10  1  0  0  0
 10 11  2  0  0  0
 11 12  1  0  0  0
  4 13  1  0  0  0
 13 14  1  0  0  0
 14 15  1  0  0  0
 15 16  1  0  0  0
 16 17  1  0  0  0
 17 18  2  0  0  0
 17 19  1  0  0  0
 17 20  1  0  0  0
 14  1  1  0  0  0
 11  5  1  0  0  0
  2 21  1  0  0  0
  9 22  1  0  0  0
 12 23  1  0  0  0
 19 24  1  0  0  0
 20 25  1  0  0  0
M  END
>  <CHROM.0>
176.40267548,-45.85550922,-178.66843926,-170.04690023,179.44124929,4.63149029
-60.90647352,55.51033444,-172.83803228,31.16809588

>  <CHROM.1>
-56.93096705,31.24724952,9.63920490,-53.48938087,-163.04904928,-158.74872639
-57.20477903,-50.64934146,-2.82014333,-2.05263818,15.29778592,-0.14955560
-0.05702847,-0.37405765

>  <RI>
1.20554e+07

>  <Rbt.Current_Directory>
/extra/banzai2/j5wagner/CELPP/2016_10_17_rdock_implementation/normal_run/tutorialVideo/tutorial_rdock_implementation/full_week_run/4-docking/5wrn/hiResHolo_1ypv_docking

>  <Rbt.Executable>
rbdock ($Id: //depot/dev/client3/rdock/2013.1/src/exe/rbdock.cxx#4 $)

>  <Rbt.Library>
libRbt.so (2013.1, Build901 2013/11/27)

>  <Rbt.Parameter_File>
/home/j5wagner/env_00/source/rDock/rDock_2013.1_src//data/scripts/dock.prm

>  <Rbt.Receptor>
/extra/banzai2/j5wagner/CELPP/2016_10_17_rdock_implementation/normal_run/tutorialVideo/tutorial_rdock_implementation/full_week_run/4-docking/5wrn/hiResHolo_1ypv_tech_prep/rDockGridGenInput.prm

>  <SCORE>
-10.423

>  <SCORE.INTER>
-7.83097

>  <SCORE.INTER.CONST>
1

>  <SCORE.INTER.POLAR>
-1.11671

>  <SCORE.INTER.REPUL>
0

>  <SCORE.INTER.ROT>
4

>  <SCORE.INTER.VDW>
-13.4341

>  <SCORE.INTER.norm>
-0.391548

>  <SCORE.INTRA>
-1.19964

>  <SCORE.INTRA.DIHEDRAL>
-3.92324

>  <SCORE.INTRA.DIHEDRAL.0>
8.98184

>  <SCORE.INTRA.POLAR>
-0.405926

>  <SCORE.INTRA.POLAR.0>
0

>  <SCORE.INTRA.REPUL>
0

>  <SCORE.INTRA.REPUL.0>
0

>  <SCORE.INTRA.VDW>
2.14213

>  <SCORE.INTRA.VDW.0>
-1.60828

>  <SCORE.INTRA.norm>
-0.059982

>  <SCORE.RESTR>
2.3486

>  <SCORE.RESTR.CAVITY>
2.3486

>  <SCORE.RESTR.norm>
0.11743

>  <SCORE.SYSTEM>
-3.74103

>  <SCORE.SYSTEM.CONST>
0

>  <SCORE.SYSTEM.DIHEDRAL>
2.70516

>  <SCORE.SYSTEM.POLAR>
-1.78289

>  <SCORE.SYSTEM.REPUL>
0.615491

>  <SCORE.SYSTEM.VDW>
-2.10923

>  <SCORE.SYSTEM.norm>
-0.187051

>  <SCORE.heavy>
20

>  <SCORE.norm>
-0.521152

$$$$

  rDOCK(R)          3D
libRbt.so/2013.1/901 2013/11/27
 25 26  0  0  0  0  0  0  0  0999 V2000
   -3.5640   -1.5974   14.3130 C   0  0  0  0  0  0
   -3.1640   -0.6696   15.2934 O   0  0  0  0  0  0
   -2.4067   -2.1321   13.5158 C   0  0  0  0  0  0
   -2.8334   -3.5668   13.1973 C   0  0  0  0  0  0
   -3.1411   -3.7108   11.7554 N   0  0  0  0  0  0
   -2.1304   -3.6630   10.8288 C   0  0  0  0  0  0
   -2.3997   -3.7738    9.4673 C   0  0  0  0  0  0
   -3.7209   -3.9451    9.0596 C   0  0  0  0  0  0
   -4.0256   -4.0475    7.8050 N   0  0  0  0  0  0
   -4.7001   -4.0139    9.9927 N   0  0  0  0  0  0
   -4.4348   -3.9110   11.3218 C   0  0  0  0  0  0
   -5.5091   -4.0257   12.2085 O   0  0  0  0  0  0
   -3.9508   -3.9148   13.9972 O   0  0  0  0  0  0
   -4.1745   -2.8627   14.9065 C   0  0  0  0  0  0
   -5.6805   -2.7169   15.1672 C   0  0  0  0  0  0
   -5.9154   -1.8492   16.2581 O   0  0  0  0  0  0
   -6.1137   -0.2456   15.7036 P   0  0  0  0  0  0
   -7.5177    0.2312   16.0038 O   0  0  0  0  0  0
   -4.9869    0.7893   16.4321 O   0  0  0  0  0  0
   -5.8742   -0.2174   14.0297 O   0  0  0  0  0  0
   -2.9386    0.1852   14.8413 H   0  0  0  0  0  0
   -3.3063   -4.0037    7.0477 H   0  0  0  0  0  0
   -5.4106   -4.1601   13.2051 H   0  0  0  0  0  0
   -5.1100    1.6647   15.9854 H   0  0  0  0  0  0
   -6.7412   -0.5061   13.6478 H   0  0  0  0  0  0
  1  2  1  0  0  0
  1  3  1  0  0  0
  3  4  1  0  0  0
  4  5  1  0  0  0
  5  6  1  0  0  0
  6  7  2  0  0  0
  7  8  1  0  0  0
  8  9  2  0  0  0
  8 10  1  0  0  0
 10 11  2  0  0  0
 11 12  1  0  0  0
  4 13  1  0  0  0
 13 14  1  0  0  0
 14 15  1  0  0  0
 15 16  1  0  0  0
 16 17  1  0  0  0
 17 18  2  0  0  0
 17 19  1  0  0  0
 17 20  1  0  0  0
 14  1  1  0  0  0
 11  5  1  0  0  0
  2 21  1  0  0  0
  9 22  1  0  0  0
 12 23  1  0  0  0
 19 24  1  0  0  0
 20 25  1  0  0  0
M  END
>  <CHROM.0>
-60.55961786,-56.16365946,178.65715703,69.03908433,179.95019272,176.38472079
-176.30181742,59.48388884,23.04946937,-121.21066774

>  <CHROM.1>
74.70217769,70.26141228,-12.96146965,-71.39113423,91.71607384,115.76570792
174.13565954,81.97420937,-4.48551754,-2.27069038,13.33555221,-1.89551523
0.24102220,-2.03607384

>  <RI>
1.20554e+07

>  <Rbt.Current_Directory>
/extra/banzai2/j5wagner/CELPP/2016_10_17_rdock_implementation/normal_run/tutorialVideo/tutorial_rdock_implementation/full_week_run/4-docking/5wrn/hiResHolo_1ypv_docking

>  <Rbt.Executable>
rbdock ($Id: //depot/dev/client3/rdock/2013.1/src/exe/rbdock.cxx#4 $)

>  <Rbt.Library>
libRbt.so (2013.1, Build901 2013/11/27)

>  <Rbt.Parameter_File>
/home/j5wagner/env_00/source/rDock/rDock_2013.1_src//data/scripts/dock.prm

>  <Rbt.Receptor>
/extra/banzai2/j5wagner/CELPP/2016_10_17_rdock_implementation/normal_run/tutorialVideo/tutorial_rdock_implementation/full_week_run/4-docking/5wrn/hiResHolo_1ypv_tech_prep/rDockGridGenInput.prm

>  <SCORE>
-10.2941

>  <SCORE.INTER>
-9.62981

>  <SCORE.INTER.CONST>
1

>  <SCORE.INTER.POLAR>
-1.46462

>  <SCORE.INTER.REPUL>
0.0466382

>  <SCORE.INTER.ROT>
4

>  <SCORE.INTER.VDW>
-14.2833

>  <SCORE.INTER.norm>
-0.481491

>  <SCORE.INTRA>
2.03309

>  <SCORE.INTRA.DIHEDRAL>
2.23961

>  <SCORE.INTRA.DIHEDRAL.0>
8.98184

>  <SCORE.INTRA.POLAR>
-0.441083

>  <SCORE.INTRA.POLAR.0>
0

>  <SCORE.INTRA.REPUL>
0

>  <SCORE.INTRA.REPUL.0>
0

>  <SCORE.INTRA.VDW>
2.41297

>  <SCORE.INTRA.VDW.0>
-1.60828

>  <SCORE.INTRA.norm>
0.101655

>  <SCORE.RESTR>
0.587572

>  <SCORE.RESTR.CAVITY>
0.587572

>  <SCORE.RESTR.norm>
0.0293786

>  <SCORE.SYSTEM>
-3.28496

>  <SCORE.SYSTEM.CONST>
0

>  <SCORE.SYSTEM.DIHEDRAL>
4.60632

>  <SCORE.SYSTEM.POLAR>
-1.74407

>  <SCORE.SYSTEM.REPUL>
0.544779

>  <SCORE.SYSTEM.VDW>
-2.38218

>  <SCORE.SYSTEM.norm>
-0.164248

>  <SCORE.heavy>
20

>  <SCORE.norm>
-0.514705

$$$$

  rDOCK(R)          3D
libRbt.so/2013.1/901 2013/11/27
 25 26  0  0  0  0  0  0  0  0999 V2000
    6.1285    8.5424   12.3205 C   0  0  0  0  0  0
    6.4005    7.5856   13.3168 O   0  0  0  0  0  0
    7.3314    8.8548   11.4743 C   0  0  0  0  0  0
    6.7265    9.1470   10.0992 C   0  0  0  0  0  0
    6.8464   10.5870    9.7728 N   0  0  0  0  0  0
    7.7603   11.0064    8.8393 C   0  0  0  0  0  0
    7.9050   12.3569    8.5336 C   0  0  0  0  0  0
    7.0936   13.2807    9.1889 C   0  0  0  0  0  0
    7.1925   14.5489    8.9453 N   0  0  0  0  0  0
    6.1814   12.8425   10.0889 N   0  0  0  0  0  0
    6.0377   11.5231   10.3822 C   0  0  0  0  0  0
    5.0470   11.1672   11.3017 O   0  0  0  0  0  0
    5.3723    8.7283   10.0814 O   0  0  0  0  0  0
    5.1128    8.0564   11.2917 C   0  0  0  0  0  0
    3.6657    8.3225   11.7301 C   0  0  0  0  0  0
    2.7665    7.5155   10.9962 O   0  0  0  0  0  0
    3.0369    5.8650   11.3445 P   0  0  0  0  0  0
    3.6981    5.1927   10.1615 O   0  0  0  0  0  0
    4.0076    5.6893   12.7222 O   0  0  0  0  0  0
    1.5459    5.1204   11.6319 O   0  0  0  0  0  0
    5.5844    7.0370   13.4544 H   0  0  0  0  0  0
    7.8782   14.9362    8.2577 H   0  0  0  0  0  0
    4.4833   11.8311   11.8141 H   0  0  0  0  0  0
    4.1495    4.7138   12.8184 H   0  0  0  0  0  0
    1.0425    5.2332   10.7865 H   0  0  0  0  0  0
  1  2  1  0  0  0
  1  3  1  0  0  0
  3  4  1  0  0  0
  4  5  1  0  0  0
  5  6  1  0  0  0
  6  7  2  0  0  0
  7  8  1  0  0  0
  8  9  2  0  0  0
  8 10  1  0  0  0
 10 11  2  0  0  0
 11 12  1  0  0  0
  4 13  1  0  0  0
 13 14  1  0  0  0
 14 15  1  0  0  0
 15 16  1  0  0  0
 16 17  1  0  0  0
 17 18  2  0  0  0
 17 19  1  0  0  0
 17 20  1  0  0  0
 14  1  1  0  0  0
 11  5  1  0  0  0
  2 21  1  0  0  0
  9 22  1  0  0  0
 12 23  1  0  0  0
 19 24  1  0  0  0
 20 25  1  0  0  0
M  END
>  <CHROM.0>
62.76814475,-55.03896310,68.80792114,66.08186470,-13.81028061,-168.07068042
-59.01473546,-171.32789565,175.70954910,174.75594450

>  <CHROM.1>
-146.34474016,106.51070051,175.44944727,-161.67868498,64.36776953,-107.44328399
-177.10312561,60.91414243,5.24685841,8.95791885,10.81191053,-2.12422516,-0.39316754
-0.54702075

>  <RI>
1.20554e+07

>  <Rbt.Current_Directory>
/extra/banzai2/j5wagner/CELPP/2016_10_17_rdock_implementation/normal_run/tutorialVideo/tutorial_rdock_implementation/full_week_run/4-docking/5wrn/hiResHolo_1ypv_docking

>  <Rbt.Executable>
rbdock ($Id: //depot/dev/client3/rdock/2013.1/src/exe/rbdock.cxx#4 $)

>  <Rbt.Library>
libRbt.so (2013.1, Build901 2013/11/27)

>  <Rbt.Parameter_File>
/home/j5wagner/env_00/source/rDock/rDock_2013.1_src//data/scripts/dock.prm

>  <Rbt.Receptor>
/extra/banzai2/j5wagner/CELPP/2016_10_17_rdock_implementation/normal_run/tutorialVideo/tutorial_rdock_implementation/full_week_run/4-docking/5wrn/hiResHolo_1ypv_tech_prep/rDockGridGenInput.prm

>  <SCORE>
-10.2184

>  <SCORE.INTER>
-1.70101

>  <SCORE.INTER.CONST>
1

>  <SCORE.INTER.POLAR>
-2.94834

>  <SCORE.INTER.REPUL>
0.316761

>  <SCORE.INTER.ROT>
4

>  <SCORE.INTER.VDW>
-2.66047

>  <SCORE.INTER.norm>
-0.0850503

>  <SCORE.INTRA>
-2.60323

>  <SCORE.INTRA.DIHEDRAL>
1.04688

>  <SCORE.INTRA.DIHEDRAL.0>
8.98184

>  <SCORE.INTRA.POLAR>
-0.857974

>  <SCORE.INTRA.POLAR.0>
0

>  <SCORE.INTRA.REPUL>
0

>  <SCORE.INTRA.REPUL.0>
0

>  <SCORE.INTRA.VDW>
-0.209558

>  <SCORE.INTRA.VDW.0>
-1.60828

>  <SCORE.INTRA.norm>
-0.130161

>  <SCORE.RESTR>
2.30624

>  <SCORE.RESTR.CAVITY>
2.30624

>  <SCORE.RESTR.norm>
0.115312

>  <SCORE.SYSTEM>
-8.22043

>  <SCORE.SYSTEM.CONST>
0

>  <SCORE.SYSTEM.DIHEDRAL>
1.53073

>  <SCORE.SYSTEM.POLAR>
-2.28233

>  <SCORE.SYSTEM.REPUL>
0.0621345

>  <SCORE.SYSTEM.VDW>
-1.53654

>  <SCORE.SYSTEM.norm>
-0.411022

>  <SCORE.heavy>
20

>  <SCORE.norm>
-0.510922

$$$$

  rDOCK(R)          3D
libRbt.so/2013.1/901 2013/11/27
 25 26  0  0  0  0  0  0  0  0999 V2000
    4.3551    6.4788   11.1936 C   0  0  0  0  0  0
    4.2666    5.0762   11.2753 O   0  0  0  0  0  0
    5.0062    6.9445    9.9209 C   0  0  0  0  0  0
    4.2927    8.2656    9.6250 C   0  0  0  0  0  0
    5.2104    9.4104    9.8295 N   0  0  0  0  0  0
    5.1861   10.4740    8.9631 C   0  0  0  0  0  0
    6.0551   11.5499    9.1238 C   0  0  0  0  0  0
    6.9490   11.5326   10.1924 C   0  0  0  0  0  0
    7.7821   12.5057   10.3830 N   0  0  0  0  0  0
    6.9391   10.4840   11.0494 N   0  0  0  0  0  0
    6.0864    9.4371   10.8942 C   0  0  0  0  0  0
    6.1310    8.4171   11.8488 O   0  0  0  0  0  0
    3.1442    8.3757   10.4485 O   0  0  0  0  0  0
    2.9906    7.1580   11.1393 C   0  0  0  0  0  0
    2.4166    7.4264   12.5377 C   0  0  0  0  0  0
    1.0805    7.8793   12.4493 O   0  0  0  0  0  0
    0.0270    6.5598   12.1895 P   0  0  0  0  0  0
   -1.3997    7.0536   12.0930 O   0  0  0  0  0  0
    0.4429    5.7236   10.7756 O   0  0  0  0  0  0
    0.1501    5.5012   13.5028 O   0  0  0  0  0  0
    3.9349    4.8361   12.1798 H   0  0  0  0  0  0
    7.8265   13.3379    9.7518 H   0  0  0  0  0  0
    6.7950    8.3805   12.6096 H   0  0  0  0  0  0
    1.1758    5.1123   11.0404 H   0  0  0  0  0  0
   -0.3365    4.6879   13.2153 H   0  0  0  0  0  0
  1  2  1  0  0  0
  1  3  1  0  0  0
  3  4  1  0  0  0
  4  5  1  0  0  0
  5  6  1  0  0  0
  6  7  2  0  0  0
  7  8  1  0  0  0
  8  9  2  0  0  0
  8 10  1  0  0  0
 10 11  2  0  0  0
 11 12  1  0  0  0
  4 13  1  0  0  0
 13 14  1  0  0  0
 14 15  1  0  0  0
 15 16  1  0  0  0
 16 17  1  0  0  0
 17 18  2  0  0  0
 17 19  1  0  0  0
 17 20  1  0  0  0
 14  1  1  0  0  0
 11  5  1  0  0  0
  2 21  1  0  0  0
  9 22  1  0  0  0
 12 23  1  0  0  0
 19 24  1  0  0  0
 20 25  1  0  0  0
M  END
>  <CHROM.0>
63.82029918,-54.05969505,66.95014216,-168.28202064,20.40728117,22.09508449
-58.99560551,-178.39189366,42.29688687,-173.89339679

>  <CHROM.1>
173.02817674,140.30628942,176.36964188,-171.72577713,79.20350654,-179.87176149
82.72925957,-169.23924636,3.51287627,8.09688056,11.10925932,-2.50402089,0.19243041
-0.17804063

>  <RI>
1.20554e+07

>  <Rbt.Current_Directory>
/extra/banzai2/j5wagner/CELPP/2016_10_17_rdock_implementation/normal_run/tutorialVideo/tutorial_rdock_implementation/full_week_run/4-docking/5wrn/hiResHolo_1ypv_docking

>  <Rbt.Executable>
rbdock ($Id: //depot/dev/client3/rdock/2013.1/src/exe/rbdock.cxx#4 $)

>  <Rbt.Library>
libRbt.so (2013.1, Build901 2013/11/27)

>  <Rbt.Parameter_File>
/home/j5wagner/env_00/source/rDock/rDock_2013.1_src//data/scripts/dock.prm

>  <Rbt.Receptor>
/extra/banzai2/j5wagner/CELPP/2016_10_17_rdock_implementation/normal_run/tutorialVideo/tutorial_rdock_implementation/full_week_run/4-docking/5wrn/hiResHolo_1ypv_tech_prep/rDockGridGenInput.prm

>  <SCORE>
-6.73233

>  <SCORE.INTER>
1.14897

>  <SCORE.INTER.CONST>
1

>  <SCORE.INTER.POLAR>
-0.755507

>  <SCORE.INTER.REPUL>
0

>  <SCORE.INTER.ROT>
4

>  <SCORE.INTER.VDW>
-5.6823

>  <SCORE.INTER.norm>
0.0574487

>  <SCORE.INTRA>
-0.600391

>  <SCORE.INTRA.DIHEDRAL>
-3.30859

>  <SCORE.INTRA.DIHEDRAL.0>
8.98184

>  <SCORE.INTRA.POLAR>
0

>  <SCORE.INTRA.POLAR.0>
0

>  <SCORE.INTRA.REPUL>
0

>  <SCORE.INTRA.REPUL.0>
0

>  <SCORE.INTRA.VDW>
1.05391

>  <SCORE.INTRA.VDW.0>
-1.60828

>  <SCORE.INTRA.norm>
-0.0300196

>  <SCORE.RESTR>
0.853463

>  <SCORE.RESTR.CAVITY>
0.853463

>  <SCORE.RESTR.norm>
0.0426732

>  <SCORE.SYSTEM>
-8.13438

>  <SCORE.SYSTEM.CONST>
0

>  <SCORE.SYSTEM.DIHEDRAL>
4.32078

>  <SCORE.SYSTEM.POLAR>
-2.31919

>  <SCORE.SYSTEM.REPUL>
0.0591081

>  <SCORE.SYSTEM.VDW>
-2.70507

>  <SCORE.SYSTEM.norm>
-0.406719

>  <SCORE.heavy>
20

>  <SCORE.norm>
-0.336616

$$$$

  rDOCK(R)          3D
libRbt.so/2013.1/901 2013/11/27
 25 26  0  0  0  0  0  0  0  0999 V2000
    4.9931    9.4060   11.6929 C   0  0  0  0  0  0
    4.3006    9.4278   12.9185 O   0  0  0  0  0  0
    6.1260   10.3935   11.6506 C   0  0  0  0  0  0
    7.1660    9.6965   10.7704 C   0  0  0  0  0  0
    7.2866   10.3834    9.4635 N   0  0  0  0  0  0
    6.2347   11.1141    8.9713 C   0  0  0  0  0  0
    6.3186   11.7492    7.7352 C   0  0  0  0  0  0
    7.5006   11.6377    7.0059 C   0  0  0  0  0  0
    7.6280   12.2043    5.8483 N   0  0  0  0  0  0
    8.5350   10.9318    7.5217 N   0  0  0  0  0  0
    8.4532   10.3170    8.7311 C   0  0  0  0  0  0
    9.5851    9.6385    9.1917 O   0  0  0  0  0  0
    6.8060    8.3357   10.6031 O   0  0  0  0  0  0
    5.6966    8.0782   11.4317 C   0  0  0  0  0  0
    4.7748    7.0526   10.7567 C   0  0  0  0  0  0
    4.5725    7.3834    9.3973 O   0  0  0  0  0  0
    4.7758    5.9990    8.4173 P   0  0  0  0  0  0
    6.2475    5.6731    8.2886 O   0  0  0  0  0  0
    3.9476    4.6714    9.0675 O   0  0  0  0  0  0
    4.1534    6.3274    6.8794 O   0  0  0  0  0  0
    4.9223    9.1321   13.6340 H   0  0  0  0  0  0
    6.8605   12.7619    5.4092 H   0  0  0  0  0  0
    9.5723    8.9497    9.9310 H   0  0  0  0  0  0
    4.5605    4.2878    9.7445 H   0  0  0  0  0  0
    3.3936    6.9413    7.0427 H   0  0  0  0  0  0
  1  2  1  0  0  0
  1  3  1  0  0  0
  3  4  1  0  0  0
  4  5  1  0  0  0
  5  6  1  0  0  0
  6  7  2  0  0  0
  7  8  1  0  0  0
  8  9  2  0  0  0
  8 10  1  0  0  0
 10 11  2  0  0  0
 11 12  1  0  0  0
  4 13  1  0  0  0
 13 14  1  0  0  0
 14 15  1  0  0  0
 15 16  1  0  0  0
 16 17  1  0  0  0
 17 18  2  0  0  0
 17 19  1  0  0  0
 17 20  1  0  0  0
 14  1  1  0  0  0
 11  5  1  0  0  0
  2 21  1  0  0  0
  9 22  1  0  0  0
 12 23  1  0  0  0
 19 24  1  0  0  0
 20 25  1  0  0  0
M  END
>  <CHROM.0>
-62.41512783,-57.95445504,63.64290272,72.21117665,-177.04187413,13.78453653
63.55904669,59.98581735,160.45849717,-179.12305638

>  <CHROM.1>
-64.50548495,-25.16422531,17.87603553,73.97851776,133.13300041,-75.24807311
-83.72550660,-32.92668694,6.12017014,8.72698246,9.27819481,2.97633957,-1.01042349
-1.99106416

>  <RI>
1.20554e+07

>  <Rbt.Current_Directory>
/extra/banzai2/j5wagner/CELPP/2016_10_17_rdock_implementation/normal_run/tutorialVideo/tutorial_rdock_implementation/full_week_run/4-docking/5wrn/hiResHolo_1ypv_docking

>  <Rbt.Executable>
rbdock ($Id: //depot/dev/client3/rdock/2013.1/src/exe/rbdock.cxx#4 $)

>  <Rbt.Library>
libRbt.so (2013.1, Build901 2013/11/27)

>  <Rbt.Parameter_File>
/home/j5wagner/env_00/source/rDock/rDock_2013.1_src//data/scripts/dock.prm

>  <Rbt.Receptor>
/extra/banzai2/j5wagner/CELPP/2016_10_17_rdock_implementation/normal_run/tutorialVideo/tutorial_rdock_implementation/full_week_run/4-docking/5wrn/hiResHolo_1ypv_tech_prep/rDockGridGenInput.prm

>  <SCORE>
-1.882

>  <SCORE.INTER>
2.23301

>  <SCORE.INTER.CONST>
1

>  <SCORE.INTER.POLAR>
-2.07836

>  <SCORE.INTER.REPUL>
0.000378256

>  <SCORE.INTER.ROT>
4

>  <SCORE.INTER.VDW>
-0.102461

>  <SCORE.INTER.norm>
0.111651

>  <SCORE.INTRA>
3.03867

>  <SCORE.INTRA.DIHEDRAL>
3.15998

>  <SCORE.INTRA.DIHEDRAL.0>
8.98184

>  <SCORE.INTRA.POLAR>
0

>  <SCORE.INTRA.POLAR.0>
0

>  <SCORE.INTRA.REPUL>
0

>  <SCORE.INTRA.REPUL.0>
0

>  <SCORE.INTRA.VDW>
1.45869

>  <SCORE.INTRA.VDW.0>
-1.60828

>  <SCORE.INTRA.norm>
0.151934

>  <SCORE.RESTR>
0.477841

>  <SCORE.RESTR.CAVITY>
0.477841

>  <SCORE.RESTR.norm>
0.023892

>  <SCORE.SYSTEM>
-7.63153

>  <SCORE.SYSTEM.CONST>
0

>  <SCORE.SYSTEM.DIHEDRAL>
1.35921

>  <SCORE.SYSTEM.POLAR>
-2.71769

>  <SCORE.SYSTEM.REPUL>
0.544311

>  <SCORE.SYSTEM.VDW>
-1.79255

>  <SCORE.SYSTEM.norm>
-0.381576

>  <SCORE.heavy>
20

>  <SCORE.norm>
-0.0941001

$$$$

  rDOCK(R)          3D
libRbt.so/2013.1/901 2013/11/27
 25 26  0  0  0  0  0  0  0  0999 V2000
    5.1398    9.4723   11.6846 C   0  0  0  0  0  0
    4.5393    9.4523   12.9578 O   0  0  0  0  0  0
    6.2426   10.4889   11.5808 C   0  0  0  0  0  0
    7.2312    9.8362   10.6120 C   0  0  0  0  0  0
    7.2387   10.5516    9.3149 N   0  0  0  0  0  0
    8.3826   10.5908    8.5582 C   0  0  0  0  0  0
    8.4180   11.2763    7.3468 C   0  0  0  0  0  0
    7.2615   11.9177    6.9082 C   0  0  0  0  0  0
    7.2432   12.5738    5.7918 N   0  0  0  0  0  0
    6.1368   11.8456    7.6593 N   0  0  0  0  0  0
    6.1024   11.1714    8.8390 C   0  0  0  0  0  0
    4.8861   11.1280    9.5262 O   0  0  0  0  0  0
    6.8925    8.4702   10.4421 O   0  0  0  0  0  0
    5.8537    8.1682   11.3440 C   0  0  0  0  0  0
    4.9094    7.1331   10.7163 C   0  0  0  0  0  0
    4.6045    7.4822    9.3808 O   0  0  0  0  0  0
    4.7700    6.1200    8.3632 P   0  0  0  0  0  0
    4.1514    6.4099    7.0134 O   0  0  0  0  0  0
    6.4014    5.7042    8.1706 O   0  0  0  0  0  0
    3.9564    4.8153    9.0673 O   0  0  0  0  0  0
    5.2400    9.2470   13.6307 H   0  0  0  0  0  0
    8.0837   12.6560    5.1756 H   0  0  0  0  0  0
    4.6805   11.6740   10.3512 H   0  0  0  0  0  0
    6.8001    6.4470    7.6507 H   0  0  0  0  0  0
    4.6220    4.4028    9.6737 H   0  0  0  0  0  0
  1  2  1  0  0  0
  1  3  1  0  0  0
  3  4  1  0  0  0
  4  5  1  0  0  0
  5  6  1  0  0  0
  6  7  2  0  0  0
  7  8  1  0  0  0
  8  9  2  0  0  0
  8 10  1  0  0  0
 10 11  2  0  0  0
 11 12  1  0  0  0
  4 13  1  0  0  0
 13 14  1  0  0  0
 14 15  1  0  0  0
 15 16  1  0  0  0
 16 17  1  0  0  0
 17 18  2  0  0  0
 17 19  1  0  0  0
 17 20  1  0  0  0
 14  1  1  0  0  0
 11  5  1  0  0  0
  2 21  1  0  0  0
  9 22  1  0  0  0
 12 23  1  0  0  0
 19 24  1  0  0  0
 20 25  1  0  0  0
M  END
>  <CHROM.0>
-57.99270059,-55.72438481,-178.07006919,70.08472176,-174.68543702,-170.52041379
-60.49659267,61.68498373,44.39445246,175.74600670

>  <CHROM.1>
-58.91651290,149.67419946,75.85873868,74.25128217,133.07990393,167.31035909
-67.82982330,-86.96519762,5.87897012,8.94021482,9.23368069,2.92089750,-1.14988540
-2.03077854

>  <RI>
1.20554e+07

>  <Rbt.Current_Directory>
/extra/banzai2/j5wagner/CELPP/2016_10_17_rdock_implementation/normal_run/tutorialVideo/tutorial_rdock_implementation/full_week_run/4-docking/5wrn/hiResHolo_1ypv_docking

>  <Rbt.Executable>
rbdock ($Id: //depot/dev/client3/rdock/2013.1/src/exe/rbdock.cxx#4 $)

>  <Rbt.Library>
libRbt.so (2013.1, Build901 2013/11/27)

>  <Rbt.Parameter_File>
/home/j5wagner/env_00/source/rDock/rDock_2013.1_src//data/scripts/dock.prm

>  <Rbt.Receptor>
/extra/banzai2/j5wagner/CELPP/2016_10_17_rdock_implementation/normal_run/tutorialVideo/tutorial_rdock_implementation/full_week_run/4-docking/5wrn/hiResHolo_1ypv_tech_prep/rDockGridGenInput.prm

>  <SCORE>
3.68792

>  <SCORE.INTER>
1.93188

>  <SCORE.INTER.CONST>
1

>  <SCORE.INTER.POLAR>
-2.14599

>  <SCORE.INTER.REPUL>
0.0286556

>  <SCORE.INTER.ROT>
4

>  <SCORE.INTER.VDW>
-0.315035

>  <SCORE.INTER.norm>
0.096594

>  <SCORE.INTRA>
8.47296

>  <SCORE.INTRA.DIHEDRAL>
6.41853

>  <SCORE.INTRA.DIHEDRAL.0>
8.98184

>  <SCORE.INTRA.POLAR>
0

>  <SCORE.INTRA.POLAR.0>
0

>  <SCORE.INTRA.REPUL>
0.13585

>  <SCORE.INTRA.REPUL.0>
0

>  <SCORE.INTRA.VDW>
4.58445

>  <SCORE.INTRA.VDW.0>
-1.60828

>  <SCORE.INTRA.norm>
0.423648

>  <SCORE.RESTR>
0.395248

>  <SCORE.RESTR.CAVITY>
0.395248

>  <SCORE.RESTR.norm>
0.0197624

>  <SCORE.SYSTEM>
-7.11217

>  <SCORE.SYSTEM.CONST>
0

>  <SCORE.SYSTEM.DIHEDRAL>
2.9593

>  <SCORE.SYSTEM.POLAR>
-2.68198

>  <SCORE.SYSTEM.REPUL>
0.543928

>  <SCORE.SYSTEM.VDW>
-2.19274

>  <SCORE.SYSTEM.norm>
-0.355608

>  <SCORE.heavy>
20

>  <SCORE.norm>
0.184396

$$$$

  rDOCK(R)          3D
libRbt.so/2013.1/901 2013/11/27
 25 26  0  0  0  0  0  0  0  0999 V2000
    4.5972    7.1521    9.3449 C   0  0  0  0  0  0
    5.2277    6.5071    8.2640 O   0  0  0  0  0  0
    4.1144    6.1877   10.3925 C   0  0  0  0  0  0
    4.2755    6.9750   11.6949 C   0  0  0  0  0  0
    2.9515    7.3392   12.2506 N   0  0  0  0  0  0
    2.8074    8.4879   12.9869 C   0  0  0  0  0  0
    1.5772    8.8376   13.5371 C   0  0  0  0  0  0
    0.4851    8.0007   13.3174 C   0  0  0  0  0  0
   -0.6794    8.2774   13.8118 N   0  0  0  0  0  0
    0.6444    6.8845   12.5672 N   0  0  0  0  0  0
    1.8449    6.5474   12.0263 C   0  0  0  0  0  0
    1.9013    5.3924   11.2411 O   0  0  0  0  0  0
    5.0651    8.1275   11.4543 O   0  0  0  0  0  0
    5.5424    8.0547   10.1312 C   0  0  0  0  0  0
    5.6305    9.4670    9.5355 C   0  0  0  0  0  0
    6.7341   10.1669   10.0744 O   0  0  0  0  0  0
    6.7324   11.7840    9.5233 P   0  0  0  0  0  0
    5.5536   12.5259   10.1136 O   0  0  0  0  0  0
    8.1745   12.5675    9.9448 O   0  0  0  0  0  0
    6.5875   11.7821    7.8383 O   0  0  0  0  0  0
    5.9824    5.9682    8.6187 H   0  0  0  0  0  0
   -0.8539    9.1278   14.3943 H   0  0  0  0  0  0
    1.0949    4.9526   10.8198 H   0  0  0  0  0  0
    7.9462   13.1309   10.7267 H   0  0  0  0  0  0
    7.3260   11.2018    7.5241 H   0  0  0  0  0  0
  1  2  1  0  0  0
  1  3  1  0  0  0
  3  4  1  0  0  0
  4  5  1  0  0  0
  5  6  1  0  0  0
  6  7  2  0  0  0
  7  8  1  0  0  0
  8  9  2  0  0  0
  8 10  1  0  0  0
 10 11  2  0  0  0
 11 12  1  0  0  0
  4 13  1  0  0  0
 13 14  1  0  0  0
 14 15  1  0  0  0
 15 16  1  0  0  0
 16 17  1  0  0  0
 17 18  2  0  0  0
 17 19  1  0  0  0
 17 20  1  0  0  0
 14  1  1  0  0  0
 11  5  1  0  0  0
  2 21  1  0  0  0
  9 22  1  0  0  0
 12 23  1  0  0  0
 19 24  1  0  0  0
 20 25  1  0  0  0
M  END
>  <CHROM.0>
-177.59924241,60.95470930,65.42141422,73.10674620,29.83526243,6.66233780
-177.33965798,63.27674290,13.04885753,-176.98310497

>  <CHROM.1>
-57.23582361,-149.80214483,-160.19129832,-165.86148753,-174.41746534,67.79128436
-102.17888840,-54.35795088,4.25896604,8.81065545,10.82827270,-2.72621931
0.68180669,0.32483713

>  <RI>
1.20554e+07

>  <Rbt.Current_Directory>
/extra/banzai2/j5wagner/CELPP/2016_10_17_rdock_implementation/normal_run/tutorialVideo/tutorial_rdock_implementation/full_week_run/4-docking/5wrn/hiResHolo_1ypv_docking

>  <Rbt.Executable>
rbdock ($Id: //depot/dev/client3/rdock/2013.1/src/exe/rbdock.cxx#4 $)

>  <Rbt.Library>
libRbt.so (2013.1, Build901 2013/11/27)

>  <Rbt.Parameter_File>
/home/j5wagner/env_00/source/rDock/rDock_2013.1_src//data/scripts/dock.prm

>  <Rbt.Receptor>
/extra/banzai2/j5wagner/CELPP/2016_10_17_rdock_implementation/normal_run/tutorialVideo/tutorial_rdock_implementation/full_week_run/4-docking/5wrn/hiResHolo_1ypv_tech_prep/rDockGridGenInput.prm

>  <SCORE>
4.83009

>  <SCORE.INTER>
0.554807

>  <SCORE.INTER.CONST>
1

>  <SCORE.INTER.POLAR>
-0.215574

>  <SCORE.INTER.REPUL>
0.0596803

>  <SCORE.INTER.ROT>
4

>  <SCORE.INTER.VDW>
-8.41064

>  <SCORE.INTER.norm>
0.0277404

>  <SCORE.INTRA>
3.16708

>  <SCORE.INTRA.DIHEDRAL>
-3.09721

>  <SCORE.INTRA.DIHEDRAL.0>
8.98184

>  <SCORE.INTRA.POLAR>
0

>  <SCORE.INTRA.POLAR.0>
0

>  <SCORE.INTRA.REPUL>
0

>  <SCORE.INTRA.REPUL.0>
0

>  <SCORE.INTRA.VDW>
4.71568

>  <SCORE.INTRA.VDW.0>
-1.60828

>  <SCORE.INTRA.norm>
0.158354

>  <SCORE.RESTR>
4.27424

>  <SCORE.RESTR.CAVITY>
4.27424

>  <SCORE.RESTR.norm>
0.213712

>  <SCORE.SYSTEM>
-3.16603

>  <SCORE.SYSTEM.CONST>
0

>  <SCORE.SYSTEM.DIHEDRAL>
2.21084

>  <SCORE.SYSTEM.POLAR>
-1.59035

>  <SCORE.SYSTEM.REPUL>
0.605187

>  <SCORE.SYSTEM.VDW>
-1.89018

>  <SCORE.SYSTEM.norm>
-0.158301

>  <SCORE.heavy>
20

>  <SCORE.norm>
0.241504

$$$$

  rDOCK(R)          3D
libRbt.so/2013.1/901 2013/11/27
 25 26  0  0  0  0  0  0  0  0999 V2000
    4.4847    6.6434   11.1265 C   0  0  0  0  0  0
    4.3921    5.2398   11.1838 O   0  0  0  0  0  0
    5.1467    7.1287    9.8668 C   0  0  0  0  0  0
    4.4388    8.4565    9.5878 C   0  0  0  0  0  0
    5.3576    9.5953    9.8186 N   0  0  0  0  0  0
    6.1146   10.0879    8.7857 C   0  0  0  0  0  0
    7.0009   11.1429    8.9857 C   0  0  0  0  0  0
    7.0994   11.7003   10.2589 C   0  0  0  0  0  0
    7.9126   12.6791   10.4992 N   0  0  0  0  0  0
    6.3250   11.2144   11.2581 N   0  0  0  0  0  0
    5.4564   10.1880   11.0598 C   0  0  0  0  0  0
    4.6780    9.7779   12.1460 O   0  0  0  0  0  0
    3.2842    8.5557   10.4041 O   0  0  0  0  0  0
    3.1223    7.3269   11.0731 C   0  0  0  0  0  0
    2.5382    7.5732   12.4714 C   0  0  0  0  0  0
    1.1538    7.8476   12.3917 O   0  0  0  0  0  0
    0.2794    6.4008   12.1454 P   0  0  0  0  0  0
    0.3428    5.5446   13.3910 O   0  0  0  0  0  0
   -1.3364    6.7301   11.7556 O   0  0  0  0  0  0
    0.9853    5.5524   10.8639 O   0  0  0  0  0  0
    3.9914    4.9180   10.3342 H   0  0  0  0  0  0
    8.5284   13.0908    9.7615 H   0  0  0  0  0  0
    4.9720    9.8405   13.1107 H   0  0  0  0  0  0
   -1.6567    5.9274   11.2717 H   0  0  0  0  0  0
    0.3824    4.7816   10.7116 H   0  0  0  0  0  0
  1  2  1  0  0  0
  1  3  1  0  0  0
  3  4  1  0  0  0
  4  5  1  0  0  0
  5  6  1  0  0  0
  6  7  2  0  0  0
  7  8  1  0  0  0
  8  9  2  0  0  0
  8 10  1  0  0  0
 10 11  2  0  0  0
 11 12  1  0  0  0
  4 13  1  0  0  0
 13 14  1  0  0  0
 14 15  1  0  0  0
 15 16  1  0  0  0
 16 17  1  0  0  0
 17 18  2  0  0  0
 17 19  1  0  0  0
 17 20  1  0  0  0
 14  1  1  0  0  0
 11  5  1  0  0  0
  2 21  1  0  0  0
  9 22  1  0  0  0
 12 23  1  0  0  0
 19 24  1  0  0  0
 20 25  1  0  0  0
M  END
>  <CHROM.0>
-179.55511871,-171.83147560,-64.57931025,-49.09389560,-176.72369556,-175.93586843
178.82897963,-59.59470268,7.29093929,17.65214347

>  <CHROM.1>
-50.62479081,91.23322878,150.18457958,-163.47349570,77.23817804,69.14733841
156.79682509,-174.25423833,3.58601988,8.24097257,11.07689069,-2.61654964
0.48446377,0.29402055

>  <RI>
1.20554e+07

>  <Rbt.Current_Directory>
/extra/banzai2/j5wagner/CELPP/2016_10_17_rdock_implementation/normal_run/tutorialVideo/tutorial_rdock_implementation/full_week_run/4-docking/5wrn/hiResHolo_1ypv_docking

>  <Rbt.Executable>
rbdock ($Id: //depot/dev/client3/rdock/2013.1/src/exe/rbdock.cxx#4 $)

>  <Rbt.Library>
libRbt.so (2013.1, Build901 2013/11/27)

>  <Rbt.Parameter_File>
/home/j5wagner/env_00/source/rDock/rDock_2013.1_src//data/scripts/dock.prm

>  <Rbt.Receptor>
/extra/banzai2/j5wagner/CELPP/2016_10_17_rdock_implementation/normal_run/tutorialVideo/tutorial_rdock_implementation/full_week_run/4-docking/5wrn/hiResHolo_1ypv_tech_prep/rDockGridGenInput.prm

>  <SCORE>
6.26339

>  <SCORE.INTER>
4.17335

>  <SCORE.INTER.CONST>
1

>  <SCORE.INTER.POLAR>
-1.49069

>  <SCORE.INTER.REPUL>
0.0968088

>  <SCORE.INTER.ROT>
4

>  <SCORE.INTER.VDW>
-0.642361

>  <SCORE.INTER.norm>
0.208667

>  <SCORE.INTRA>
-0.827123

>  <SCORE.INTRA.DIHEDRAL>
-1.69066

>  <SCORE.INTRA.DIHEDRAL.0>
8.98184

>  <SCORE.INTRA.POLAR>
0

>  <SCORE.INTRA.POLAR.0>
0

>  <SCORE.INTRA.REPUL>
0

>  <SCORE.INTRA.REPUL.0>
0

>  <SCORE.INTRA.VDW>
0.018209

>  <SCORE.INTRA.VDW.0>
-1.60828

>  <SCORE.INTRA.norm>
-0.0413562

>  <SCORE.RESTR>
0.875224

>  <SCORE.RESTR.CAVITY>
0.875224

>  <SCORE.RESTR.norm>
0.0437612

>  <SCORE.SYSTEM>
2.04194

>  <SCORE.SYSTEM.CONST>
0

>  <SCORE.SYSTEM.DIHEDRAL>
1.28258

>  <SCORE.SYSTEM.POLAR>
-0.214025

>  <SCORE.SYSTEM.REPUL>
0.370659

>  <SCORE.SYSTEM.VDW>
0.275039

>  <SCORE.SYSTEM.norm>
0.102097

>  <SCORE.heavy>
20

>  <SCORE.norm>
0.313169

$$$$

  rDOCK(R)          3D
libRbt.so/2013.1/901 2013/11/27
 25 26  0  0  0  0  0  0  0  0999 V2000
    6.8616    9.6723   12.7883 C   0  0  0  0  0  0
    7.5863   10.2222   13.8627 O   0  0  0  0  0  0
    5.7650    8.7492   13.2421 C   0  0  0  0  0  0
    4.6773    8.9502   12.1845 C   0  0  0  0  0  0
    4.5477    7.7437   11.3348 N   0  0  0  0  0  0
    3.6926    6.7346   11.6998 C   0  0  0  0  0  0
    3.5719    5.5824   10.9276 C   0  0  0  0  0  0
    4.3320    5.4750    9.7649 C   0  0  0  0  0  0
    4.2612    4.4216    9.0147 N   0  0  0  0  0  0
    5.1515    6.4934    9.4108 N   0  0  0  0  0  0
    5.2640    7.6200   10.1629 C   0  0  0  0  0  0
    6.1125    8.6285    9.6976 O   0  0  0  0  0  0
    4.9825   10.0950   11.4062 O   0  0  0  0  0  0
    6.1030   10.7229   11.9839 C   0  0  0  0  0  0
    6.9684   11.3508   10.8821 C   0  0  0  0  0  0
    6.2627   11.3931    9.6579 O   0  0  0  0  0  0
    7.2691   12.0007    8.4183 P   0  0  0  0  0  0
    7.5914   13.4545    8.6854 O   0  0  0  0  0  0
    8.7030   11.1043    8.3102 O   0  0  0  0  0  0
    6.4447   11.8864    6.9461 O   0  0  0  0  0  0
    6.9483   10.6878   14.4644 H   0  0  0  0  0  0
    3.6420    3.6109    9.2431 H   0  0  0  0  0  0
    6.7143    8.5367    8.8911 H   0  0  0  0  0  0
    9.3979   11.6727    8.7286 H   0  0  0  0  0  0
    5.5332   11.5871    7.1920 H   0  0  0  0  0  0
  1  2  1  0  0  0
  1  3  1  0  0  0
  3  4  1  0  0  0
  4  5  1  0  0  0
  5  6  1  0  0  0
  6  7  2  0  0  0
  7  8  1  0  0  0
  8  9  2  0  0  0
  8 10  1  0  0  0
 10 11  2  0  0  0
 11 12  1  0  0  0
  4 13  1  0  0  0
 13 14  1  0  0  0
 14 15  1  0  0  0
 15 16  1  0  0  0
 16 17  1  0  0  0
 17 18  2  0  0  0
 17 19  1  0  0  0
 17 20  1  0  0  0
 14  1  1  0  0  0
 11  5  1  0  0  0
  2 21  1  0  0  0
  9 22  1  0  0  0
 12 23  1  0  0  0
 19 24  1  0  0  0
 20 25  1  0  0  0
M  END
>  <CHROM.0>
-55.95387543,-53.86307186,67.86972860,73.47788173,50.00375794,-161.44129190
-177.45176721,63.87395474,-131.70697848,172.14792107

>  <CHROM.1>
-56.39281314,89.03953187,174.13337982,133.12180513,-176.38718496,-66.82784866
-103.93220700,6.35359970,5.97071895,9.40639456,10.34171087,-2.91269900,-1.10272106
-1.61893080

>  <RI>
1.20554e+07

>  <Rbt.Current_Directory>
/extra/banzai2/j5wagner/CELPP/2016_10_17_rdock_implementation/normal_run/tutorialVideo/tutorial_rdock_implementation/full_week_run/4-docking/5wrn/hiResHolo_1ypv_docking

>  <Rbt.Executable>
rbdock ($Id: //depot/dev/client3/rdock/2013.1/src/exe/rbdock.cxx#4 $)

>  <Rbt.Library>
libRbt.so (2013.1, Build901 2013/11/27)

>  <Rbt.Parameter_File>
/home/j5wagner/env_00/source/rDock/rDock_2013.1_src//data/scripts/dock.prm

>  <Rbt.Receptor>
/extra/banzai2/j5wagner/CELPP/2016_10_17_rdock_implementation/normal_run/tutorialVideo/tutorial_rdock_implementation/full_week_run/4-docking/5wrn/hiResHolo_1ypv_tech_prep/rDockGridGenInput.prm

>  <SCORE>
15.9478

>  <SCORE.INTER>
19.1944

>  <SCORE.INTER.CONST>
1

>  <SCORE.INTER.POLAR>
-2.19285

>  <SCORE.INTER.REPUL>
0

>  <SCORE.INTER.ROT>
4

>  <SCORE.INTER.VDW>
17.2501

>  <SCORE.INTER.norm>
0.959719

>  <SCORE.INTRA>
1.49188

>  <SCORE.INTRA.DIHEDRAL>
2.63758

>  <SCORE.INTRA.DIHEDRAL.0>
8.98184

>  <SCORE.INTRA.POLAR>
0

>  <SCORE.INTRA.POLAR.0>
0

>  <SCORE.INTRA.REPUL>
0

>  <SCORE.INTRA.REPUL.0>
0

>  <SCORE.INTRA.VDW>
0.173088

>  <SCORE.INTRA.VDW.0>
-1.60828

>  <SCORE.INTRA.norm>
0.074594

>  <SCORE.RESTR>
1.18241

>  <SCORE.RESTR.CAVITY>
1.18241

>  <SCORE.RESTR.norm>
0.0591206

>  <SCORE.SYSTEM>
-5.92086

>  <SCORE.SYSTEM.CONST>
0

>  <SCORE.SYSTEM.DIHEDRAL>
7.19196

>  <SCORE.SYSTEM.POLAR>
-2.72242

>  <SCORE.SYSTEM.REPUL>
0.535618

>  <SCORE.SYSTEM.VDW>
-2.93872

>  <SCORE.SYSTEM.norm>
-0.296043

>  <SCORE.heavy>
20

>  <SCORE.norm>
0.797391

$$$$

  rDOCK(R)          3D
libRbt.so/2013.1/901 2013/11/27
 25 26  0  0  0  0  0  0  0  0999 V2000
    4.5433    6.9517    7.9237 C   0  0  0  0  0  0
    3.4968    6.2424    7.3044 O   0  0  0  0  0  0
    4.0638    7.8243    9.0503 C   0  0  0  0  0  0
    5.2322    7.7954   10.0382 C   0  0  0  0  0  0
    5.9113    9.1112   10.0805 N   0  0  0  0  0  0
    6.9675    9.3668    9.2429 C   0  0  0  0  0  0
    7.6342   10.5885    9.2815 C   0  0  0  0  0  0
    7.2012   11.5574   10.1844 C   0  0  0  0  0  0
    7.7906   12.7078   10.2643 N   0  0  0  0  0  0
    6.1413   11.2927   10.9848 N   0  0  0  0  0  0
    5.4882   10.1015   10.9419 C   0  0  0  0  0  0
    4.3861    9.9352   11.7854 O   0  0  0  0  0  0
    6.1338    6.7647    9.6717 O   0  0  0  0  0  0
    5.5526    6.0396    8.6134 C   0  0  0  0  0  0
    6.6501    5.5545    7.6556 C   0  0  0  0  0  0
    6.2722    5.7763    6.3117 O   0  0  0  0  0  0
    7.5981    5.4933    5.2722 P   0  0  0  0  0  0
    7.2748    5.9919    3.8810 O   0  0  0  0  0  0
    8.9932    6.2628    5.8491 O   0  0  0  0  0  0
    7.8858    3.8282    5.2017 O   0  0  0  0  0  0
    2.9477    6.8860    6.7847 H   0  0  0  0  0  0
    8.6101   12.9610    9.6666 H   0  0  0  0  0  0
    4.2479   10.4463   12.6461 H   0  0  0  0  0  0
    8.8576    7.2253    5.6587 H   0  0  0  0  0  0
    7.6480    3.4946    6.1034 H   0  0  0  0  0  0
  1  2  1  0  0  0
  1  3  1  0  0  0
  3  4  1  0  0  0
  4  5  1  0  0  0
  5  6  1  0  0  0
  6  7  2  0  0  0
  7  8  1  0  0  0
  8  9  2  0  0  0
  8 10  1  0  0  0
 10 11  2  0  0  0
 11 12  1  0  0  0
  4 13  1  0  0  0
 13 14  1  0  0  0
 14 15  1  0  0  0
 15 16  1  0  0  0
 16 17  1  0  0  0
 17 18  2  0  0  0
 17 19  1  0  0  0
 17 20  1  0  0  0
 14  1  1  0  0  0
 11  5  1  0  0  0
  2 21  1  0  0  0
  9 22  1  0  0  0
 12 23  1  0  0  0
 19 24  1  0  0  0
 20 25  1  0  0  0
M  END
>  <CHROM.0>
-175.35750093,-55.88332676,66.78932541,73.40383322,-30.79875641,-167.24601412
-61.32077312,60.32803501,15.30316084,3.73203269

>  <CHROM.1>
71.25236756,-90.99437905,155.65606911,-15.42345664,170.03359224,-168.79700317
-74.28795569,-33.35274408,6.34521860,7.71579747,8.19851768,1.39262832,-0.55120565
-2.46946777

>  <RI>
1.20554e+07

>  <Rbt.Current_Directory>
/extra/banzai2/j5wagner/CELPP/2016_10_17_rdock_implementation/normal_run/tutorialVideo/tutorial_rdock_implementation/full_week_run/4-docking/5wrn/hiResHolo_1ypv_docking

>  <Rbt.Executable>
rbdock ($Id: //depot/dev/client3/rdock/2013.1/src/exe/rbdock.cxx#4 $)

>  <Rbt.Library>
libRbt.so (2013.1, Build901 2013/11/27)

>  <Rbt.Parameter_File>
/home/j5wagner/env_00/source/rDock/rDock_2013.1_src//data/scripts/dock.prm

>  <Rbt.Receptor>
/extra/banzai2/j5wagner/CELPP/2016_10_17_rdock_implementation/normal_run/tutorialVideo/tutorial_rdock_implementation/full_week_run/4-docking/5wrn/hiResHolo_1ypv_tech_prep/rDockGridGenInput.prm

>  <SCORE>
26.0491

>  <SCORE.INTER>
28.4492

>  <SCORE.INTER.CONST>
1

>  <SCORE.INTER.POLAR>
-1.26348

>  <SCORE.INTER.REPUL>
0

>  <SCORE.INTER.ROT>
4

>  <SCORE.INTER.VDW>
23.345

>  <SCORE.INTER.norm>
1.42246

>  <SCORE.INTRA>
1.44384

>  <SCORE.INTRA.DIHEDRAL>
1.44168

>  <SCORE.INTRA.DIHEDRAL.0>
8.98184

>  <SCORE.INTRA.POLAR>
0

>  <SCORE.INTRA.POLAR.0>
0

>  <SCORE.INTRA.REPUL>
0

>  <SCORE.INTRA.REPUL.0>
0

>  <SCORE.INTRA.VDW>
0.723

>  <SCORE.INTRA.VDW.0>
-1.60828

>  <SCORE.INTRA.norm>
0.072192

>  <SCORE.RESTR>
0.00948096

>  <SCORE.RESTR.CAVITY>
0.00948096

>  <SCORE.RESTR.norm>
0.000474048

>  <SCORE.SYSTEM>
-3.85345

>  <SCORE.SYSTEM.CONST>
0

>  <SCORE.SYSTEM.DIHEDRAL>
2.63531

>  <SCORE.SYSTEM.POLAR>
-1.78923

>  <SCORE.SYSTEM.REPUL>
0.657329

>  <SCORE.SYSTEM.VDW>
-2.37436

>  <SCORE.SYSTEM.norm>
-0.192673

>  <SCORE.heavy>
20

>  <SCORE.norm>
1.30245

$$$$

  rDOCK(R)          3D
libRbt.so/2013.1/901 2013/11/27
 25 26  0  0  0  0  0  0  0  0999 V2000
    6.7446    8.6412   12.7187 C   0  0  0  0  0  0
    7.5531    8.7819   13.8626 O   0  0  0  0  0  0
    5.8059    7.4706   12.8139 C   0  0  0  0  0  0
    4.5736    7.9454   12.0406 C   0  0  0  0  0  0
    4.4417    7.2041   10.7649 N   0  0  0  0  0  0
    4.4699    7.8799    9.5711 C   0  0  0  0  0  0
    4.3253    7.2057    8.3616 C   0  0  0  0  0  0
    4.1604    5.8223    8.3837 C   0  0  0  0  0  0
    4.0158    5.1486    7.2871 N   0  0  0  0  0  0
    4.1599    5.1726    9.5720 N   0  0  0  0  0  0
    4.3067    5.8318   10.7515 C   0  0  0  0  0  0
    4.3244    5.0693   11.9229 O   0  0  0  0  0  0
    4.6681    9.3417   11.8148 O   0  0  0  0  0  0
    5.7942    9.8164   12.5149 C   0  0  0  0  0  0
    6.4451   10.9635   11.7289 C   0  0  0  0  0  0
    7.1007   10.4696   10.5780 O   0  0  0  0  0  0
    6.7879   11.4849    9.2402 P   0  0  0  0  0  0
    5.2954   11.5996    9.0211 O   0  0  0  0  0  0
    7.4537   13.0243    9.4812 O   0  0  0  0  0  0
    7.4902   10.7988    7.8632 O   0  0  0  0  0  0
    8.1603    7.9979   13.9145 H   0  0  0  0  0  0
    4.0124    5.6033    6.3457 H   0  0  0  0  0  0
    4.1297    5.4383   12.8432 H   0  0  0  0  0  0
    7.0963   13.3294   10.3531 H   0  0  0  0  0  0
    8.4570   10.7506    8.0726 H   0  0  0  0  0  0
  1  2  1  0  0  0
  1  3  1  0  0  0
  3  4  1  0  0  0
  4  5  1  0  0  0
  5  6  1  0  0  0
  6  7  2  0  0  0
  7  8  1  0  0  0
  8  9  2  0  0  0
  8 10  1  0  0  0
 10 11  2  0  0  0
 11 12  1  0  0  0
  4 13  1  0  0  0
 13 14  1  0  0  0
 14 15  1  0  0  0
 15 16  1  0  0  0
 16 17  1  0  0  0
 17 18  2  0  0  0
 17 19  1  0  0  0
 17 20  1  0  0  0
 14  1  1  0  0  0
 11  5  1  0  0  0
  2 21  1  0  0  0
  9 22  1  0  0  0
 12 23  1  0  0  0
 19 24  1  0  0  0
 20 25  1  0  0  0
M  END
>  <CHROM.0>
-178.00385053,-55.41517016,179.96952481,70.66245215,20.17404429,-0.05707755
-61.54470912,-61.92346454,12.61716479,-174.13006260

>  <CHROM.1>
65.92382531,-119.56606858,21.09011615,47.63616419,137.31679577,-56.82897472
-53.65932127,-60.28235477,5.63822687,8.75219832,10.45099721,-0.34504788,1.10830516
1.93728705

>  <RI>
1.20554e+07

>  <Rbt.Current_Directory>
/extra/banzai2/j5wagner/CELPP/2016_10_17_rdock_implementation/normal_run/tutorialVideo/tutorial_rdock_implementation/full_week_run/4-docking/5wrn/hiResHolo_1ypv_docking

>  <Rbt.Executable>
rbdock ($Id: //depot/dev/client3/rdock/2013.1/src/exe/rbdock.cxx#4 $)

>  <Rbt.Library>
libRbt.so (2013.1, Build901 2013/11/27)

>  <Rbt.Parameter_File>
/home/j5wagner/env_00/source/rDock/rDock_2013.1_src//data/scripts/dock.prm

>  <Rbt.Receptor>
/extra/banzai2/j5wagner/CELPP/2016_10_17_rdock_implementation/normal_run/tutorialVideo/tutorial_rdock_implementation/full_week_run/4-docking/5wrn/hiResHolo_1ypv_tech_prep/rDockGridGenInput.prm

>  <SCORE>
29.7449

>  <SCORE.INTER>
35.8877

>  <SCORE.INTER.CONST>
1

>  <SCORE.INTER.POLAR>
-1.82154

>  <SCORE.INTER.REPUL>
0.495155

>  <SCORE.INTER.ROT>
4

>  <SCORE.INTER.VDW>
30.2052

>  <SCORE.INTER.norm>
1.79439

>  <SCORE.INTRA>
0.70506

>  <SCORE.INTRA.DIHEDRAL>
0.717292

>  <SCORE.INTRA.DIHEDRAL.0>
8.98184

>  <SCORE.INTRA.POLAR>
0

>  <SCORE.INTRA.POLAR.0>
0

>  <SCORE.INTRA.REPUL>
0

>  <SCORE.INTRA.REPUL.0>
0

>  <SCORE.INTRA.VDW>
0.346414

>  <SCORE.INTRA.VDW.0>
-1.60828

>  <SCORE.INTRA.norm>
0.035253

>  <SCORE.RESTR>
1.13771

>  <SCORE.RESTR.CAVITY>
1.13771

>  <SCORE.RESTR.norm>
0.0568857

>  <SCORE.SYSTEM>
-7.98563

>  <SCORE.SYSTEM.CONST>
0

>  <SCORE.SYSTEM.DIHEDRAL>
1.29715

>  <SCORE.SYSTEM.POLAR>
-2.28451

>  <SCORE.SYSTEM.REPUL>
0.102859

>  <SCORE.SYSTEM.VDW>
-1.38118

>  <SCORE.SYSTEM.norm>
-0.399282

>  <SCORE.heavy>
20

>  <SCORE.norm>
1.48724

$$$$

  rDOCK(R)          3D
libRbt.so/2013.1/901 2013/11/27
 25 26  0  0  0  0  0  0  0  0999 V2000
   -3.4332   -0.9597   17.1642 C   0  0  0  0  0  0
   -4.0709   -0.5504   18.3507 O   0  0  0  0  0  0
   -1.9461   -1.1091   17.3283 C   0  0  0  0  0  0
   -1.6028   -2.2611   16.3813 C   0  0  0  0  0  0
   -0.8388   -1.7651   15.2131 N   0  0  0  0  0  0
   -1.4374   -1.6933   13.9805 C   0  0  0  0  0  0
   -0.7313   -1.2512   12.8650 C   0  0  0  0  0  0
    0.5996   -0.8708   13.0245 C   0  0  0  0  0  0
    1.3023   -0.4580   12.0179 N   0  0  0  0  0  0
    1.1632   -0.9267   14.2547 N   0  0  0  0  0  0
    0.4708   -1.3533   15.3437 C   0  0  0  0  0  0
    1.1305   -1.3453   16.5759 O   0  0  0  0  0  0
   -2.7963   -2.9094   15.9755 O   0  0  0  0  0  0
   -3.8610   -2.3511   16.7093 C   0  0  0  0  0  0
   -5.1258   -2.3172   15.8396 C   0  0  0  0  0  0
   -5.9964   -1.2886   16.2664 O   0  0  0  0  0  0
   -7.6054   -1.6580   15.8267 P   0  0  0  0  0  0
   -7.6977   -3.1017   15.3842 O   0  0  0  0  0  0
   -8.6637   -1.3846   17.1215 O   0  0  0  0  0  0
   -8.0569   -0.6622   14.5365 O   0  0  0  0  0  0
   -4.9553   -0.1664   18.1137 H   0  0  0  0  0  0
    0.9122   -0.3941   11.0501 H   0  0  0  0  0  0
    2.0441   -0.9411   16.7279 H   0  0  0  0  0  0
   -8.2337   -0.6767   17.6646 H   0  0  0  0  0  0
   -8.9150   -0.2576   14.8208 H   0  0  0  0  0  0
  1  2  1  0  0  0
  1  3  1  0  0  0
  3  4  1  0  0  0
  4  5  1  0  0  0
  5  6  1  0  0  0
  6  7  2  0  0  0
  7  8  1  0  0  0
  8  9  2  0  0  0
  8 10  1  0  0  0
 10 11  2  0  0  0
 11 12  1  0  0  0
  4 13  1  0  0  0
 13 14  1  0  0  0
 14 15  1  0  0  0
 15 16  1  0  0  0
 16 17  1  0  0  0
 17 18  2  0  0  0
 17 19  1  0  0  0
 17 20  1  0  0  0
 14  1  1  0  0  0
 11  5  1  0  0  0
  2 21  1  0  0  0
  9 22  1  0  0  0
 12 23  1  0  0  0
 19 24  1  0  0  0
 20 25  1  0  0  0
M  END
>  <CHROM.0>
48.60011957,61.15516872,66.31282933,71.24488632,15.90549195,17.47095320,-46.43502894
62.20849976,13.88016741,178.45794820

>  <CHROM.1>
160.21237197,-107.41668642,-171.78915879,-34.31273737,-154.87773826,12.47288919
27.64286567,-128.68054752,-3.38832652,-1.50860486,15.58377034,-2.92279367
-0.04532968,-1.52230005

>  <RI>
1.20554e+07

>  <Rbt.Current_Directory>
/extra/banzai2/j5wagner/CELPP/2016_10_17_rdock_implementation/normal_run/tutorialVideo/tutorial_rdock_implementation/full_week_run/4-docking/5wrn/hiResHolo_1ypv_docking

>  <Rbt.Executable>
rbdock ($Id: //depot/dev/client3/rdock/2013.1/src/exe/rbdock.cxx#4 $)

>  <Rbt.Library>
libRbt.so (2013.1, Build901 2013/11/27)

>  <Rbt.Parameter_File>
/home/j5wagner/env_00/source/rDock/rDock_2013.1_src//data/scripts/dock.prm

>  <Rbt.Receptor>
/extra/banzai2/j5wagner/CELPP/2016_10_17_rdock_implementation/normal_run/tutorialVideo/tutorial_rdock_implementation/full_week_run/4-docking/5wrn/hiResHolo_1ypv_tech_prep/rDockGridGenInput.prm

>  <SCORE>
31.1228

>  <SCORE.INTER>
28.3496

>  <SCORE.INTER.CONST>
1

>  <SCORE.INTER.POLAR>
-3.11231

>  <SCORE.INTER.REPUL>
0

>  <SCORE.INTER.ROT>
4

>  <SCORE.INTER.VDW>
29.5314

>  <SCORE.INTER.norm>
1.41748

>  <SCORE.INTRA>
3.92451

>  <SCORE.INTRA.DIHEDRAL>
5.78611

>  <SCORE.INTRA.DIHEDRAL.0>
8.98184

>  <SCORE.INTRA.POLAR>
-0.0744448

>  <SCORE.INTRA.POLAR.0>
0

>  <SCORE.INTRA.REPUL>
0

>  <SCORE.INTRA.REPUL.0>
0

>  <SCORE.INTRA.VDW>
1.28456

>  <SCORE.INTRA.VDW.0>
-1.60828

>  <SCORE.INTRA.norm>
0.196225

>  <SCORE.RESTR>
1.37727

>  <SCORE.RESTR.CAVITY>
1.37727

>  <SCORE.RESTR.norm>
0.0688635

>  <SCORE.SYSTEM>
-2.52855

>  <SCORE.SYSTEM.CONST>
0

>  <SCORE.SYSTEM.DIHEDRAL>
2.82274

>  <SCORE.SYSTEM.POLAR>
-1.54801

>  <SCORE.SYSTEM.REPUL>
0.605846

>  <SCORE.SYSTEM.VDW>
-1.70591

>  <SCORE.SYSTEM.norm>
-0.126428

>  <SCORE.heavy>
20

>  <SCORE.norm>
1.55614

$$$$

  rDOCK(R)          3D
libRbt.so/2013.1/901 2013/11/27
 25 26  0  0  0  0  0  0  0  0999 V2000
    4.9314    6.2159   10.2100 C   0  0  0  0  0  0
    4.3142    5.7860   11.4001 O   0  0  0  0  0  0
    4.8355    5.1978    9.1079 C   0  0  0  0  0  0
    4.7409    6.0564    7.8446 C   0  0  0  0  0  0
    5.9844    5.9480    7.0468 N   0  0  0  0  0  0
    7.2053    5.9548    7.6728 C   0  0  0  0  0  0
    8.3871    5.8765    6.9408 C   0  0  0  0  0  0
    8.3080    5.7804    5.5531 C   0  0  0  0  0  0
    9.3772    5.7110    4.8256 N   0  0  0  0  0  0
    7.0919    5.7510    4.9578 N   0  0  0  0  0  0
    5.9391    5.8220    5.6743 C   0  0  0  0  0  0
    4.7330    5.7523    4.9714 O   0  0  0  0  0  0
    4.4801    7.4016    8.2075 O   0  0  0  0  0  0
    4.2540    7.4372    9.5972 C   0  0  0  0  0  0
    4.7925    8.7540   10.1744 C   0  0  0  0  0  0
    5.3723    9.5443    9.1559 O   0  0  0  0  0  0
    6.0858   10.9429    9.8292 P   0  0  0  0  0  0
    6.8673   10.5731   11.0707 O   0  0  0  0  0  0
    7.1090   11.6981    8.7094 O   0  0  0  0  0  0
    4.8585   12.0241   10.2591 O   0  0  0  0  0  0
    4.2956    6.5486   12.0357 H   0  0  0  0  0  0
   10.3379    5.7268    5.2376 H   0  0  0  0  0  0
    4.5046    5.0261    4.3069 H   0  0  0  0  0  0
    6.5274   11.9354    7.9436 H   0  0  0  0  0  0
    5.3140   12.7182   10.7990 H   0  0  0  0  0  0
  1  2  1  0  0  0
  1  3  1  0  0  0
  3  4  1  0  0  0
  4  5  1  0  0  0
  5  6  1  0  0  0
  6  7  2  0  0  0
  7  8  1  0  0  0
  8  9  2  0  0  0
  8 10  1  0  0  0
 10 11  2  0  0  0
 11 12  1  0  0  0
  4 13  1  0  0  0
 13 14  1  0  0  0
 14 15  1  0  0  0
 15 16  1  0  0  0
 16 17  1  0  0  0
 17 18  2  0  0  0
 17 19  1  0  0  0
 17 20  1  0  0  0
 14  1  1  0  0  0
 11  5  1  0  0  0
  2 21  1  0  0  0
  9 22  1  0  0  0
 12 23  1  0  0  0
 19 24  1  0  0  0
 20 25  1  0  0  0
M  END
>  <CHROM.0>
-173.55948952,62.96117499,71.80399546,-43.79022400,-86.24117476,28.94475421
-176.67391127,68.60010364,142.98828003,178.48643518

>  <CHROM.1>
-171.75578090,-41.69726486,-127.70224387,119.11466896,-175.16086275,44.19243281
60.21396727,169.03012536,5.95191095,7.73180335,8.32274265,1.84920745,0.82855780
0.49501270

>  <RI>
1.20554e+07

>  <Rbt.Current_Directory>
/extra/banzai2/j5wagner/CELPP/2016_10_17_rdock_implementation/normal_run/tutorialVideo/tutorial_rdock_implementation/full_week_run/4-docking/5wrn/hiResHolo_1ypv_docking

>  <Rbt.Executable>
rbdock ($Id: //depot/dev/client3/rdock/2013.1/src/exe/rbdock.cxx#4 $)

>  <Rbt.Library>
libRbt.so (2013.1, Build901 2013/11/27)

>  <Rbt.Parameter_File>
/home/j5wagner/env_00/source/rDock/rDock_2013.1_src//data/scripts/dock.prm

>  <Rbt.Receptor>
/extra/banzai2/j5wagner/CELPP/2016_10_17_rdock_implementation/normal_run/tutorialVideo/tutorial_rdock_implementation/full_week_run/4-docking/5wrn/hiResHolo_1ypv_tech_prep/rDockGridGenInput.prm

>  <SCORE>
48.6437

>  <SCORE.INTER>
45.3567

>  <SCORE.INTER.CONST>
1

>  <SCORE.INTER.POLAR>
-2.32034

>  <SCORE.INTER.REPUL>
0

>  <SCORE.INTER.ROT>
4

>  <SCORE.INTER.VDW>
43.8458

>  <SCORE.INTER.norm>
2.26783

>  <SCORE.INTRA>
2.70597

>  <SCORE.INTRA.DIHEDRAL>
2.66595

>  <SCORE.INTRA.DIHEDRAL.0>
8.98184

>  <SCORE.INTRA.POLAR>
0

>  <SCORE.INTRA.POLAR.0>
0

>  <SCORE.INTRA.REPUL>
0

>  <SCORE.INTRA.REPUL.0>
0

>  <SCORE.INTRA.VDW>
1.373

>  <SCORE.INTRA.VDW.0>
-1.60828

>  <SCORE.INTRA.norm>
0.135299

>  <SCORE.RESTR>
1.02107

>  <SCORE.RESTR.CAVITY>
1.02107

>  <SCORE.RESTR.norm>
0.0510533

>  <SCORE.SYSTEM>
-0.440052

>  <SCORE.SYSTEM.CONST>
0

>  <SCORE.SYSTEM.DIHEDRAL>
9.49455

>  <SCORE.SYSTEM.POLAR>
-1.60134

>  <SCORE.SYSTEM.REPUL>
0.633248

>  <SCORE.SYSTEM.VDW>
-2.90903

>  <SCORE.SYSTEM.norm>
-0.0220026

>  <SCORE.heavy>
20

>  <SCORE.norm>
2.43218

$$$$
