
 OpenBabel12121610203D
libRbt.so/2013.1/901 2013/11/27
 25 26  0  0  1  0  0  0  0  0999 V2000
   -1.3139    3.5371   17.7295 C   0  0  1  0  0  0  0  0  0  0  0  0
   -1.7935    3.0185   18.9472 O   0  0  0  0  0  0  0  0  0  0  0  0
   -1.1773    5.0342   17.7518 C   0  0  0  0  0  0  0  0  0  0  0  0
    0.0297    5.2898   16.8463 C   0  0  2  0  0  0  0  0  0  0  0  0
   -0.3957    5.9288   15.5794 N   0  0  0  0  0  0  0  0  0  0  0  0
    0.0357    7.1937   15.2689 C   0  0  0  0  0  0  0  0  0  0  0  0
   -0.3697    7.8216   14.0942 C   0  0  0  0  0  0  0  0  0  0  0  0
   -1.2187    7.1351   13.2286 C   0  0  0  0  0  0  0  0  0  0  0  0
   -1.6298    7.6763   12.1262 N   0  0  0  0  0  0  0  0  0  0  0  0
   -1.6128    5.8781   13.5433 N   0  0  0  0  0  0  0  0  0  0  0  0
   -1.2116    5.2646   14.6878 C   0  0  0  0  0  0  0  0  0  0  0  0
   -1.6467    3.9547   14.9084 O   0  0  0  0  0  0  0  0  0  0  0  0
    0.7034    4.0666   16.6026 O   0  0  0  0  0  0  0  0  0  0  0  0
    0.1033    3.0766   17.4048 C   0  0  2  0  0  0  0  0  0  0  0  0
    0.1245    1.7307   16.6663 C   0  0  0  0  0  0  0  0  0  0  0  0
   -0.2143    0.6756   17.5439 O   0  0  0  0  0  0  0  0  0  0  0  0
   -0.2555   -0.8065   16.6953 P   0  0  0  0  0  0  0  0  0  0  0  0
   -0.6717   -1.9212   17.6296 O   0  0  0  0  0  0  0  0  0  0  0  0
   -1.3275   -0.7235   15.3857 O   0  0  0  0  0  0  0  0  0  0  0  0
    1.2953   -1.1379   16.1077 O   0  0  0  0  0  0  0  0  0  0  0  0
   -2.7435    3.2887   19.0496 H   0  0  0  0  0  0  0  0  0  0  0  0
   -1.3516    8.6419   11.8376 H   0  0  0  0  0  0  0  0  0  0  0  0
   -1.9924    3.3418   14.1833 H   0  0  0  0  0  0  0  0  0  0  0  0
   -2.2311   -0.6910   15.7901 H   0  0  0  0  0  0  0  0  0  0  0  0
    1.8422   -1.2947   16.9184 H   0  0  0  0  0  0  0  0  0  0  0  0
  1  2  1  1  0  0  0
  1  3  1  0  0  0  0
  2 21  1  0  0  0  0
  3  4  1  0  0  0  0
  4  5  1  6  0  0  0
  4 13  1  0  0  0  0
  5  6  1  0  0  0  0
  6  7  2  0  0  0  0
  7  8  1  0  0  0  0
  8  9  2  0  0  0  0
  8 10  1  0  0  0  0
  9 22  1  0  0  0  0
 10 11  2  0  0  0  0
 11 12  1  0  0  0  0
 11  5  1  0  0  0  0
 12 23  1  0  0  0  0
 13 14  1  0  0  0  0
 14 15  1  6  0  0  0
 14  1  1  0  0  0  0
 15 16  1  0  0  0  0
 16 17  1  0  0  0  0
 17 18  2  0  0  0  0
 17 19  1  0  0  0  0
 17 20  1  0  0  0  0
 19 24  1  0  0  0  0
 20 25  1  0  0  0  0
M  END
