
  rDOCK(R)          3D
libRbt.so/2013.1/901 2013/11/27
 25 26  0  0  0  0  0  0  0  0999 V2000
   -1.3139    3.5371   17.7295 C   0  0  0  0  0  0
   -1.7935    3.0185   18.9472 O   0  0  0  0  0  0
   -1.1773    5.0342   17.7518 C   0  0  0  0  0  0
    0.0297    5.2898   16.8463 C   0  0  0  0  0  0
   -0.3957    5.9288   15.5794 N   0  0  0  0  0  0
    0.0357    7.1937   15.2689 C   0  0  0  0  0  0
   -0.3697    7.8216   14.0942 C   0  0  0  0  0  0
   -1.2187    7.1351   13.2286 C   0  0  0  0  0  0
   -1.6298    7.6763   12.1262 N   0  0  0  0  0  0
   -1.6128    5.8781   13.5433 N   0  0  0  0  0  0
   -1.2116    5.2646   14.6878 C   0  0  0  0  0  0
   -1.6467    3.9547   14.9084 O   0  0  0  0  0  0
    0.7034    4.0666   16.6026 O   0  0  0  0  0  0
    0.1033    3.0766   17.4048 C   0  0  0  0  0  0
    0.1245    1.7307   16.6663 C   0  0  0  0  0  0
   -0.2143    0.6756   17.5439 O   0  0  0  0  0  0
   -0.2555   -0.8065   16.6953 P   0  0  0  0  0  0
   -0.6717   -1.9212   17.6296 O   0  0  0  0  0  0
   -1.3275   -0.7235   15.3857 O   0  0  0  0  0  0
    1.2953   -1.1379   16.1077 O   0  0  0  0  0  0
   -2.7435    3.2887   19.0496 H   0  0  0  0  0  0
   -1.3516    8.6419   11.8376 H   0  0  0  0  0  0
   -1.9924    3.3418   14.1833 H   0  0  0  0  0  0
   -2.2311   -0.6910   15.7901 H   0  0  0  0  0  0
    1.8422   -1.2947   16.9184 H   0  0  0  0  0  0
  1  2  1  0  0  0
  1  3  1  0  0  0
  3  4  1  0  0  0
  4  5  1  0  0  0
  5  6  1  0  0  0
  6  7  2  0  0  0
  7  8  1  0  0  0
  8  9  2  0  0  0
  8 10  1  0  0  0
 10 11  2  0  0  0
 11 12  1  0  0  0
  4 13  1  0  0  0
 13 14  1  0  0  0
 14 15  1  0  0  0
 15 16  1  0  0  0
 16 17  1  0  0  0
 17 18  2  0  0  0
 17 19  1  0  0  0
 17 20  1  0  0  0
 14  1  1  0  0  0
 11  5  1  0  0  0
  2 21  1  0  0  0
  9 22  1  0  0  0
 12 23  1  0  0  0
 19 24  1  0  0  0
 20 25  1  0  0  0
M  END
>  <CHROM.0>
-56.60825355,-85.25172162,83.21779009,-54.12622133,75.15921849,-166.26723305
-58.36739112,-157.23746827,4.50188501,175.32815507,-62.56858547,6.06079776
-17.67831138

>  <CHROM.1>
69.50165131,116.35601781,-160.31529989,-72.28126258,177.47704346,-177.78780140
-70.34300078,66.62528797,-0.61055077,3.19823100,16.02961664,-0.43990811,-1.47565697
0.77646345

>  <RI>
2.0734e+07

>  <Rbt.Current_Directory>
/extra/banzai2/j5wagner/CELPP/2016_10_17_rdock_implementation/normal_run/tutorialVideo/tutorial_rdock_implementation/full_week_run/4-docking/5wrn/LMCSS_1hvy_docking

>  <Rbt.Executable>
rbdock ($Id: //depot/dev/client3/rdock/2013.1/src/exe/rbdock.cxx#4 $)

>  <Rbt.Library>
libRbt.so (2013.1, Build901 2013/11/27)

>  <Rbt.Parameter_File>
/home/j5wagner/env_00/source/rDock/rDock_2013.1_src//data/scripts/dock.prm

>  <Rbt.Receptor>
/extra/banzai2/j5wagner/CELPP/2016_10_17_rdock_implementation/normal_run/tutorialVideo/tutorial_rdock_implementation/full_week_run/4-docking/5wrn/LMCSS_1hvy_tech_prep/rDockGridGenInput.prm

>  <SCORE>
-53.9412

>  <SCORE.INTER>
-30.9349

>  <SCORE.INTER.CONST>
1

>  <SCORE.INTER.POLAR>
-6.46112

>  <SCORE.INTER.REPUL>
0

>  <SCORE.INTER.ROT>
4

>  <SCORE.INTER.VDW>
-18.3671

>  <SCORE.INTER.norm>
-1.54674

>  <SCORE.INTRA>
-2.9674

>  <SCORE.INTRA.DIHEDRAL>
-4.76598

>  <SCORE.INTRA.DIHEDRAL.0>
8.98184

>  <SCORE.INTRA.POLAR>
0

>  <SCORE.INTRA.POLAR.0>
0

>  <SCORE.INTRA.REPUL>
0

>  <SCORE.INTRA.REPUL.0>
0

>  <SCORE.INTRA.VDW>
-0.584408

>  <SCORE.INTRA.VDW.0>
-1.60828

>  <SCORE.INTRA.norm>
-0.14837

>  <SCORE.RESTR>
0

>  <SCORE.RESTR.CAVITY>
0

>  <SCORE.RESTR.norm>
0

>  <SCORE.SYSTEM>
-20.039

>  <SCORE.SYSTEM.CONST>
0

>  <SCORE.SYSTEM.DIHEDRAL>
8.30342

>  <SCORE.SYSTEM.POLAR>
-6.42157

>  <SCORE.SYSTEM.REPUL>
0.083271

>  <SCORE.SYSTEM.VDW>
-2.7737

>  <SCORE.SYSTEM.norm>
-1.00195

>  <SCORE.heavy>
20

>  <SCORE.norm>
-2.69706

$$$$

  rDOCK(R)          3D
libRbt.so/2013.1/901 2013/11/27
 25 26  0  0  0  0  0  0  0  0999 V2000
   -1.4610    3.9972   17.6196 C   0  0  0  0  0  0
   -1.9908    3.5061   18.8280 O   0  0  0  0  0  0
   -1.3599    5.4971   17.5992 C   0  0  0  0  0  0
   -0.1139    5.7531   16.7483 C   0  0  0  0  0  0
   -0.4878    6.3407   15.4409 N   0  0  0  0  0  0
    0.0109    7.5637   15.0691 C   0  0  0  0  0  0
   -0.3449    8.1443   13.8548 C   0  0  0  0  0  0
   -1.2141    7.4532   13.0133 C   0  0  0  0  0  0
   -1.5810    7.9518   11.8757 N   0  0  0  0  0  0
   -1.6752    6.2366   13.3893 N   0  0  0  0  0  0
   -1.3224    5.6687   14.5728 C   0  0  0  0  0  0
   -1.8256    4.3961   14.8572 O   0  0  0  0  0  0
    0.5993    4.5396   16.5799 O   0  0  0  0  0  0
   -0.0187    3.5614   17.3829 C   0  0  0  0  0  0
    0.0713    2.1935   16.6915 C   0  0  0  0  0  0
   -0.6673    1.2239   17.4074 O   0  0  0  0  0  0
   -0.3578   -0.3345   16.7798 P   0  0  0  0  0  0
   -0.9750   -0.4657   15.4048 O   0  0  0  0  0  0
    1.3083   -0.6311   16.6929 O   0  0  0  0  0  0
   -1.0609   -1.4812   17.8050 O   0  0  0  0  0  0
   -2.0444    2.5166   18.7665 H   0  0  0  0  0  0
   -1.2506    8.8849   11.5395 H   0  0  0  0  0  0
   -2.3899    3.8532   14.2185 H   0  0  0  0  0  0
    1.3910   -1.5990   16.4998 H   0  0  0  0  0  0
   -2.0152   -1.5015   17.5409 H   0  0  0  0  0  0
  1  2  1  0  0  0
  1  3  1  0  0  0
  3  4  1  0  0  0
  4  5  1  0  0  0
  5  6  1  0  0  0
  6  7  2  0  0  0
  7  8  1  0  0  0
  8  9  2  0  0  0
  8 10  1  0  0  0
 10 11  2  0  0  0
 11 12  1  0  0  0
  4 13  1  0  0  0
 13 14  1  0  0  0
 14 15  1  0  0  0
 15 16  1  0  0  0
 16 17  1  0  0  0
 17 18  2  0  0  0
 17 19  1  0  0  0
 17 20  1  0  0  0
 14  1  1  0  0  0
 11  5  1  0  0  0
  2 21  1  0  0  0
  9 22  1  0  0  0
 12 23  1  0  0  0
 19 24  1  0  0  0
 20 25  1  0  0  0
M  END
>  <CHROM.0>
60.64059129,-78.78271410,78.64556352,-56.51276394,72.67735777,-47.95502430
-61.40092130,-162.82761563,13.82670011,173.36242421,-179.33352889,-166.92867222
-175.10601405

>  <CHROM.1>
179.00118138,121.18294006,-175.90557412,-53.85334264,-170.86349881,-69.81808863
168.88070106,81.27751684,-0.70738154,3.61364917,15.99230997,0.04010879,-1.49753355
1.21532161

>  <RI>
2.0734e+07

>  <Rbt.Current_Directory>
/extra/banzai2/j5wagner/CELPP/2016_10_17_rdock_implementation/normal_run/tutorialVideo/tutorial_rdock_implementation/full_week_run/4-docking/5wrn/LMCSS_1hvy_docking

>  <Rbt.Executable>
rbdock ($Id: //depot/dev/client3/rdock/2013.1/src/exe/rbdock.cxx#4 $)

>  <Rbt.Library>
libRbt.so (2013.1, Build901 2013/11/27)

>  <Rbt.Parameter_File>
/home/j5wagner/env_00/source/rDock/rDock_2013.1_src//data/scripts/dock.prm

>  <Rbt.Receptor>
/extra/banzai2/j5wagner/CELPP/2016_10_17_rdock_implementation/normal_run/tutorialVideo/tutorial_rdock_implementation/full_week_run/4-docking/5wrn/LMCSS_1hvy_tech_prep/rDockGridGenInput.prm

>  <SCORE>
-50.6024

>  <SCORE.INTER>
-26.396

>  <SCORE.INTER.CONST>
1

>  <SCORE.INTER.POLAR>
-4.9934

>  <SCORE.INTER.REPUL>
0

>  <SCORE.INTER.ROT>
4

>  <SCORE.INTER.VDW>
-18.8185

>  <SCORE.INTER.norm>
-1.3198

>  <SCORE.INTRA>
-3.55781

>  <SCORE.INTRA.DIHEDRAL>
-4.95593

>  <SCORE.INTRA.DIHEDRAL.0>
8.98184

>  <SCORE.INTRA.POLAR>
-0.236519

>  <SCORE.INTRA.POLAR.0>
0

>  <SCORE.INTRA.REPUL>
0

>  <SCORE.INTRA.REPUL.0>
0

>  <SCORE.INTRA.VDW>
-0.275676

>  <SCORE.INTRA.VDW.0>
-1.60828

>  <SCORE.INTRA.norm>
-0.17789

>  <SCORE.RESTR>
0

>  <SCORE.RESTR.CAVITY>
0

>  <SCORE.RESTR.norm>
0

>  <SCORE.SYSTEM>
-20.6486

>  <SCORE.SYSTEM.CONST>
0

>  <SCORE.SYSTEM.DIHEDRAL>
5.62224

>  <SCORE.SYSTEM.POLAR>
-6.04192

>  <SCORE.SYSTEM.REPUL>
0.0199546

>  <SCORE.SYSTEM.VDW>
-3.01693

>  <SCORE.SYSTEM.norm>
-1.03243

>  <SCORE.heavy>
20

>  <SCORE.norm>
-2.53012

$$$$

  rDOCK(R)          3D
libRbt.so/2013.1/901 2013/11/27
 25 26  0  0  0  0  0  0  0  0999 V2000
   -1.3582    3.6214   17.6772 C   0  0  0  0  0  0
   -1.8504    3.1026   18.8898 O   0  0  0  0  0  0
   -1.2417    5.1203   17.6938 C   0  0  0  0  0  0
   -0.0238    5.3872   16.8064 C   0  0  0  0  0  0
   -0.4371    6.0141   15.5295 N   0  0  0  0  0  0
    0.0228    7.2632   15.1965 C   0  0  0  0  0  0
   -0.3706    7.8801   14.0120 C   0  0  0  0  0  0
   -1.2374    7.1988   13.1599 C   0  0  0  0  0  0
   -1.6383    7.7305   12.0492 N   0  0  0  0  0  0
   -1.6597    5.9570   13.4969 N   0  0  0  0  0  0
   -1.2703    5.3539   14.6510 C   0  0  0  0  0  0
   -1.7351    4.0585   14.8950 O   0  0  0  0  0  0
    0.6698    4.1719   16.5799 O   0  0  0  0  0  0
    0.0701    3.1781   17.3776 C   0  0  0  0  0  0
    0.1209    1.8289   16.6466 C   0  0  0  0  0  0
   -0.3271    0.7876   17.4912 O   0  0  0  0  0  0
   -0.2174   -0.7142   16.6842 P   0  0  0  0  0  0
   -0.6043   -1.8325   17.6267 O   0  0  0  0  0  0
   -1.2197   -0.7408   15.3182 O   0  0  0  0  0  0
    1.3827   -0.9475   16.1886 O   0  0  0  0  0  0
   -2.8156    3.3258   18.9564 H   0  0  0  0  0  0
   -1.3384    8.6842   11.7434 H   0  0  0  0  0  0
   -1.9334    3.3811   14.1718 H   0  0  0  0  0  0
   -2.1441   -0.7595   15.6735 H   0  0  0  0  0  0
    1.3849   -1.8413   15.7620 H   0  0  0  0  0  0
  1  2  1  0  0  0
  1  3  1  0  0  0
  3  4  1  0  0  0
  4  5  1  0  0  0
  5  6  1  0  0  0
  6  7  2  0  0  0
  7  8  1  0  0  0
  8  9  2  0  0  0
  8 10  1  0  0  0
 10 11  2  0  0  0
 11 12  1  0  0  0
  4 13  1  0  0  0
 13 14  1  0  0  0
 14 15  1  0  0  0
 15 16  1  0  0  0
 16 17  1  0  0  0
 17 18  2  0  0  0
 17 19  1  0  0  0
 17 20  1  0  0  0
 14  1  1  0  0  0
 11  5  1  0  0  0
  2 21  1  0  0  0
  9 22  1  0  0  0
 12 23  1  0  0  0
 19 24  1  0  0  0
 20 25  1  0  0  0
M  END
>  <CHROM.0>
66.63270755,-70.93438040,80.23325635,66.30583169,72.51064206,-46.82189929
-59.72156922,-154.93082498,-159.98723585,176.28807547,-176.54075939,-166.27153906
-154.71588010

>  <CHROM.1>
72.00035439,118.78788350,-148.35280511,-67.31242732,-178.14351008,175.97001548
-70.10886388,177.97672549,-0.62611236,3.28243508,15.98942457,-0.15787240
-1.47636886,1.05491443

>  <RI>
2.0734e+07

>  <Rbt.Current_Directory>
/extra/banzai2/j5wagner/CELPP/2016_10_17_rdock_implementation/normal_run/tutorialVideo/tutorial_rdock_implementation/full_week_run/4-docking/5wrn/LMCSS_1hvy_docking

>  <Rbt.Executable>
rbdock ($Id: //depot/dev/client3/rdock/2013.1/src/exe/rbdock.cxx#4 $)

>  <Rbt.Library>
libRbt.so (2013.1, Build901 2013/11/27)

>  <Rbt.Parameter_File>
/home/j5wagner/env_00/source/rDock/rDock_2013.1_src//data/scripts/dock.prm

>  <Rbt.Receptor>
/extra/banzai2/j5wagner/CELPP/2016_10_17_rdock_implementation/normal_run/tutorialVideo/tutorial_rdock_implementation/full_week_run/4-docking/5wrn/LMCSS_1hvy_tech_prep/rDockGridGenInput.prm

>  <SCORE>
-48.4679

>  <SCORE.INTER>
-30.1751

>  <SCORE.INTER.CONST>
1

>  <SCORE.INTER.POLAR>
-6.06778

>  <SCORE.INTER.REPUL>
0

>  <SCORE.INTER.ROT>
4

>  <SCORE.INTER.VDW>
-18.9447

>  <SCORE.INTER.norm>
-1.50876

>  <SCORE.INTRA>
-2.54458

>  <SCORE.INTRA.DIHEDRAL>
-4.17454

>  <SCORE.INTRA.DIHEDRAL.0>
8.98184

>  <SCORE.INTRA.POLAR>
0

>  <SCORE.INTRA.POLAR.0>
0

>  <SCORE.INTRA.REPUL>
0

>  <SCORE.INTRA.REPUL.0>
0

>  <SCORE.INTRA.VDW>
-0.457317

>  <SCORE.INTRA.VDW.0>
-1.60828

>  <SCORE.INTRA.norm>
-0.127229

>  <SCORE.RESTR>
0

>  <SCORE.RESTR.CAVITY>
0

>  <SCORE.RESTR.norm>
0

>  <SCORE.SYSTEM>
-15.7482

>  <SCORE.SYSTEM.CONST>
0

>  <SCORE.SYSTEM.DIHEDRAL>
6.57492

>  <SCORE.SYSTEM.POLAR>
-4.70828

>  <SCORE.SYSTEM.REPUL>
0.0781591

>  <SCORE.SYSTEM.VDW>
-3.41829

>  <SCORE.SYSTEM.norm>
-0.78741

>  <SCORE.heavy>
20

>  <SCORE.norm>
-2.4234

$$$$

  rDOCK(R)          3D
libRbt.so/2013.1/901 2013/11/27
 25 26  0  0  0  0  0  0  0  0999 V2000
   -1.3893    5.1761   15.4406 C   0  0  0  0  0  0
   -1.6610    5.5068   14.0994 O   0  0  0  0  0  0
   -1.4861    6.3617   16.3601 C   0  0  0  0  0  0
   -1.9996    5.7516   17.6663 C   0  0  0  0  0  0
   -0.9401    5.7692   18.7014 N   0  0  0  0  0  0
   -0.0213    6.7879   18.7271 C   0  0  0  0  0  0
    0.9960    6.8123   19.6774 C   0  0  0  0  0  0
    1.0596    5.7830   20.6143 C   0  0  0  0  0  0
    1.9894    5.7556   21.5154 N   0  0  0  0  0  0
    0.1279    4.8005   20.5856 N   0  0  0  0  0  0
   -0.8678    4.7811   19.6606 C   0  0  0  0  0  0
   -1.7997    3.7419   19.7324 O   0  0  0  0  0  0
   -2.4563    4.4319   17.4225 O   0  0  0  0  0  0
   -2.4100    4.2095   16.0325 C   0  0  0  0  0  0
   -2.0525    2.7423   15.7559 C   0  0  0  0  0  0
   -0.7182    2.4741   16.1380 O   0  0  0  0  0  0
   -0.5257    0.8111   16.4785 P   0  0  0  0  0  0
   -1.1445    0.4872   17.8204 O   0  0  0  0  0  0
   -1.2399   -0.1396   15.2714 O   0  0  0  0  0  0
    1.1272    0.4584   16.5408 O   0  0  0  0  0  0
   -0.9647    6.1421   13.7870 H   0  0  0  0  0  0
    2.7289    6.4917   21.5810 H   0  0  0  0  0  0
   -2.5341    3.5904   19.0551 H   0  0  0  0  0  0
   -1.6405   -0.9094   15.7487 H   0  0  0  0  0  0
    1.4483    0.9076   17.3630 H   0  0  0  0  0  0
  1  2  1  0  0  0
  1  3  1  0  0  0
  3  4  1  0  0  0
  4  5  1  0  0  0
  5  6  1  0  0  0
  6  7  2  0  0  0
  7  8  1  0  0  0
  8  9  2  0  0  0
  8 10  1  0  0  0
 10 11  2  0  0  0
 11 12  1  0  0  0
  4 13  1  0  0  0
 13 14  1  0  0  0
 14 15  1  0  0  0
 15 16  1  0  0  0
 16 17  1  0  0  0
 17 18  2  0  0  0
 17 19  1  0  0  0
 17 20  1  0  0  0
 14  1  1  0  0  0
 11  5  1  0  0  0
  2 21  1  0  0  0
  9 22  1  0  0  0
 12 23  1  0  0  0
 19 24  1  0  0  0
 20 25  1  0  0  0
M  END
>  <CHROM.0>
-177.16790951,179.22334746,67.93913417,-54.91425333,70.83087717,-46.50432380
-61.68216153,-160.77082568,10.19944984,167.76135164,-178.17511194,-172.29022544
-0.17393189

>  <CHROM.1>
63.69825811,32.82523587,5.51430374,51.37681737,155.45944142,-75.39169495
-142.30656367,69.53037551,-0.77205062,3.80927347,17.56692458,1.95753168,1.06358121
-2.80863677

>  <RI>
2.0734e+07

>  <Rbt.Current_Directory>
/extra/banzai2/j5wagner/CELPP/2016_10_17_rdock_implementation/normal_run/tutorialVideo/tutorial_rdock_implementation/full_week_run/4-docking/5wrn/LMCSS_1hvy_docking

>  <Rbt.Executable>
rbdock ($Id: //depot/dev/client3/rdock/2013.1/src/exe/rbdock.cxx#4 $)

>  <Rbt.Library>
libRbt.so (2013.1, Build901 2013/11/27)

>  <Rbt.Parameter_File>
/home/j5wagner/env_00/source/rDock/rDock_2013.1_src//data/scripts/dock.prm

>  <Rbt.Receptor>
/extra/banzai2/j5wagner/CELPP/2016_10_17_rdock_implementation/normal_run/tutorialVideo/tutorial_rdock_implementation/full_week_run/4-docking/5wrn/LMCSS_1hvy_tech_prep/rDockGridGenInput.prm

>  <SCORE>
-47.1408

>  <SCORE.INTER>
-27.7403

>  <SCORE.INTER.CONST>
1

>  <SCORE.INTER.POLAR>
-6.16417

>  <SCORE.INTER.REPUL>
0.00109318

>  <SCORE.INTER.ROT>
4

>  <SCORE.INTER.VDW>
-16.1876

>  <SCORE.INTER.norm>
-1.38702

>  <SCORE.INTRA>
-0.3735

>  <SCORE.INTRA.DIHEDRAL>
-1.31298

>  <SCORE.INTRA.DIHEDRAL.0>
8.98184

>  <SCORE.INTRA.POLAR>
-0.39454

>  <SCORE.INTRA.POLAR.0>
0

>  <SCORE.INTRA.REPUL>
0

>  <SCORE.INTRA.REPUL.0>
0

>  <SCORE.INTRA.VDW>
1.62442

>  <SCORE.INTRA.VDW.0>
-1.60828

>  <SCORE.INTRA.norm>
-0.018675

>  <SCORE.RESTR>
0

>  <SCORE.RESTR.CAVITY>
0

>  <SCORE.RESTR.norm>
0

>  <SCORE.SYSTEM>
-19.0269

>  <SCORE.SYSTEM.CONST>
0

>  <SCORE.SYSTEM.DIHEDRAL>
3.03109

>  <SCORE.SYSTEM.POLAR>
-4.81423

>  <SCORE.SYSTEM.REPUL>
0.0170912

>  <SCORE.SYSTEM.VDW>
-4.25954

>  <SCORE.SYSTEM.norm>
-0.951346

>  <SCORE.heavy>
20

>  <SCORE.norm>
-2.35704

$$$$

  rDOCK(R)          3D
libRbt.so/2013.1/901 2013/11/27
 25 26  0  0  0  0  0  0  0  0999 V2000
   -1.3200    3.7216   17.7538 C   0  0  0  0  0  0
   -1.8384    3.1609   18.9365 O   0  0  0  0  0  0
   -1.3518    5.2248   17.7635 C   0  0  0  0  0  0
   -0.1098    5.6071   16.9554 C   0  0  0  0  0  0
   -0.4969    6.1863   15.6481 N   0  0  0  0  0  0
   -0.1088    7.4606   15.3189 C   0  0  0  0  0  0
   -0.4804    8.0325   14.1051 C   0  0  0  0  0  0
   -1.2498    7.2801   13.2201 C   0  0  0  0  0  0
   -1.6268    7.7674   12.0809 N   0  0  0  0  0  0
   -1.6011    6.0158   13.5550 N   0  0  0  0  0  0
   -1.2329    5.4571   14.7381 C   0  0  0  0  0  0
   -1.6177    4.1351   14.9788 O   0  0  0  0  0  0
    0.7128    4.4650   16.7867 O   0  0  0  0  0  0
    0.1615    3.4197   17.5529 C   0  0  0  0  0  0
    0.3922    2.0796   16.8399 C   0  0  0  0  0  0
   -0.1477    1.0139   17.5956 O   0  0  0  0  0  0
   -0.0250   -0.4492   16.7222 P   0  0  0  0  0  0
   -0.7832   -0.3334   15.4182 O   0  0  0  0  0  0
    1.5959   -0.8341   16.4126 O   0  0  0  0  0  0
   -0.7114   -1.6898   17.6440 O   0  0  0  0  0  0
   -1.5233    3.7054   19.7047 H   0  0  0  0  0  0
   -1.3788    8.7360   11.7755 H   0  0  0  0  0  0
   -2.0908    3.5499   14.3044 H   0  0  0  0  0  0
    1.9750   -1.0913   17.2908 H   0  0  0  0  0  0
   -0.6045   -2.5030   17.0888 H   0  0  0  0  0  0
  1  2  1  0  0  0
  1  3  1  0  0  0
  3  4  1  0  0  0
  4  5  1  0  0  0
  5  6  1  0  0  0
  6  7  2  0  0  0
  7  8  1  0  0  0
  8  9  2  0  0  0
  8 10  1  0  0  0
 10 11  2  0  0  0
 11 12  1  0  0  0
  4 13  1  0  0  0
 13 14  1  0  0  0
 14 15  1  0  0  0
 15 16  1  0  0  0
 16 17  1  0  0  0
 17 18  2  0  0  0
 17 19  1  0  0  0
 17 20  1  0  0  0
 14  1  1  0  0  0
 11  5  1  0  0  0
  2 21  1  0  0  0
  9 22  1  0  0  0
 12 23  1  0  0  0
 19 24  1  0  0  0
 20 25  1  0  0  0
M  END
>  <CHROM.0>
64.60336884,-77.66422911,79.37534687,-52.57560378,-66.26454409,-164.09100017
-58.30530734,-158.16485639,12.45578284,-179.90588099,-173.66343082,2.93917674
-177.30058863

>  <CHROM.1>
-40.34381778,120.57398538,-174.80339582,-60.52293354,174.34324170,-59.80987076
70.74860145,-179.70861174,-0.54913478,3.45077505,16.10007473,0.13044478,-1.44825940
1.33475973

>  <RI>
2.0734e+07

>  <Rbt.Current_Directory>
/extra/banzai2/j5wagner/CELPP/2016_10_17_rdock_implementation/normal_run/tutorialVideo/tutorial_rdock_implementation/full_week_run/4-docking/5wrn/LMCSS_1hvy_docking

>  <Rbt.Executable>
rbdock ($Id: //depot/dev/client3/rdock/2013.1/src/exe/rbdock.cxx#4 $)

>  <Rbt.Library>
libRbt.so (2013.1, Build901 2013/11/27)

>  <Rbt.Parameter_File>
/home/j5wagner/env_00/source/rDock/rDock_2013.1_src//data/scripts/dock.prm

>  <Rbt.Receptor>
/extra/banzai2/j5wagner/CELPP/2016_10_17_rdock_implementation/normal_run/tutorialVideo/tutorial_rdock_implementation/full_week_run/4-docking/5wrn/LMCSS_1hvy_tech_prep/rDockGridGenInput.prm

>  <SCORE>
-47.0224

>  <SCORE.INTER>
-26.5285

>  <SCORE.INTER.CONST>
1

>  <SCORE.INTER.POLAR>
-5.13324

>  <SCORE.INTER.REPUL>
0.0167197

>  <SCORE.INTER.ROT>
4

>  <SCORE.INTER.VDW>
-18.5591

>  <SCORE.INTER.norm>
-1.32643

>  <SCORE.INTRA>
-2.0321

>  <SCORE.INTRA.DIHEDRAL>
-4.39934

>  <SCORE.INTRA.DIHEDRAL.0>
8.98184

>  <SCORE.INTRA.POLAR>
0

>  <SCORE.INTRA.POLAR.0>
0

>  <SCORE.INTRA.REPUL>
0

>  <SCORE.INTRA.REPUL.0>
0

>  <SCORE.INTRA.VDW>
0.16757

>  <SCORE.INTRA.VDW.0>
-1.60828

>  <SCORE.INTRA.norm>
-0.101605

>  <SCORE.RESTR>
0

>  <SCORE.RESTR.CAVITY>
0

>  <SCORE.RESTR.norm>
0

>  <SCORE.SYSTEM>
-18.4618

>  <SCORE.SYSTEM.CONST>
0

>  <SCORE.SYSTEM.DIHEDRAL>
5.42

>  <SCORE.SYSTEM.POLAR>
-5.55555

>  <SCORE.SYSTEM.REPUL>
0.026024

>  <SCORE.SYSTEM.VDW>
-2.41309

>  <SCORE.SYSTEM.norm>
-0.923092

>  <SCORE.heavy>
20

>  <SCORE.norm>
-2.35112

$$$$

  rDOCK(R)          3D
libRbt.so/2013.1/901 2013/11/27
 25 26  0  0  0  0  0  0  0  0999 V2000
   -1.5041    3.8956   17.7288 C   0  0  0  0  0  0
   -1.9780    3.4820   18.9882 O   0  0  0  0  0  0
   -1.1988    5.3670   17.6799 C   0  0  0  0  0  0
   -0.0171    5.4480   16.7108 C   0  0  0  0  0  0
   -0.4301    6.0828   15.4377 N   0  0  0  0  0  0
    0.0074    7.3452   15.1255 C   0  0  0  0  0  0
   -0.3864    7.9693   13.9449 C   0  0  0  0  0  0
   -1.2301    7.2815   13.0751 C   0  0  0  0  0  0
   -1.6304    7.8192   11.9670 N   0  0  0  0  0  0
   -1.6302    6.0269   13.3917 N   0  0  0  0  0  0
   -1.2404    5.4171   14.5421 C   0  0  0  0  0  0
   -1.6808    4.1094   14.7646 O   0  0  0  0  0  0
    0.5017    4.1474   16.4905 O   0  0  0  0  0  0
   -0.1655    3.2638   17.3611 C   0  0  0  0  0  0
   -0.3325    1.8972   16.6816 C   0  0  0  0  0  0
   -1.1203    1.0369   17.4800 O   0  0  0  0  0  0
   -1.1213   -0.5401   16.8231 P   0  0  0  0  0  0
   -1.0048   -0.4684   15.3165 O   0  0  0  0  0  0
    0.1543   -1.4590   17.4554 O   0  0  0  0  0  0
   -2.5825   -1.2925   17.2219 O   0  0  0  0  0  0
   -1.3182    3.7586   19.6767 H   0  0  0  0  0  0
   -1.3471    8.7827   11.6767 H   0  0  0  0  0  0
   -2.1361    3.5375   14.0669 H   0  0  0  0  0  0
    0.1802   -2.2822   16.9053 H   0  0  0  0  0  0
   -3.2742   -0.7601   16.7540 H   0  0  0  0  0  0
  1  2  1  0  0  0
  1  3  1  0  0  0
  3  4  1  0  0  0
  4  5  1  0  0  0
  5  6  1  0  0  0
  6  7  2  0  0  0
  7  8  1  0  0  0
  8  9  2  0  0  0
  8 10  1  0  0  0
 10 11  2  0  0  0
 11 12  1  0  0  0
  4 13  1  0  0  0
 13 14  1  0  0  0
 14 15  1  0  0  0
 15 16  1  0  0  0
 16 17  1  0  0  0
 17 18  2  0  0  0
 17 19  1  0  0  0
 17 20  1  0  0  0
 14  1  1  0  0  0
 11  5  1  0  0  0
  2 21  1  0  0  0
  9 22  1  0  0  0
 12 23  1  0  0  0
 19 24  1  0  0  0
 20 25  1  0  0  0
M  END
>  <CHROM.0>
-178.08090031,-78.92503733,80.12673913,-54.22838165,-178.65334831,-168.74565479
-66.85865969,-153.79395106,12.17273984,174.58978053,179.62648855,17.27072662
60.56701460

>  <CHROM.1>
-54.70491307,108.92993867,-168.88754189,-54.14714647,-172.23497166,-31.69676165
-169.76476623,64.45924221,-0.96286387,3.40612845,16.02266658,-1.72562244
-1.41661226,-0.54660007

>  <RI>
2.0734e+07

>  <Rbt.Current_Directory>
/extra/banzai2/j5wagner/CELPP/2016_10_17_rdock_implementation/normal_run/tutorialVideo/tutorial_rdock_implementation/full_week_run/4-docking/5wrn/LMCSS_1hvy_docking

>  <Rbt.Executable>
rbdock ($Id: //depot/dev/client3/rdock/2013.1/src/exe/rbdock.cxx#4 $)

>  <Rbt.Library>
libRbt.so (2013.1, Build901 2013/11/27)

>  <Rbt.Parameter_File>
/home/j5wagner/env_00/source/rDock/rDock_2013.1_src//data/scripts/dock.prm

>  <Rbt.Receptor>
/extra/banzai2/j5wagner/CELPP/2016_10_17_rdock_implementation/normal_run/tutorialVideo/tutorial_rdock_implementation/full_week_run/4-docking/5wrn/LMCSS_1hvy_tech_prep/rDockGridGenInput.prm

>  <SCORE>
-46.5191

>  <SCORE.INTER>
-26.644

>  <SCORE.INTER.CONST>
1

>  <SCORE.INTER.POLAR>
-5.32074

>  <SCORE.INTER.REPUL>
0.0191129

>  <SCORE.INTER.ROT>
4

>  <SCORE.INTER.VDW>
-18.049

>  <SCORE.INTER.norm>
-1.3322

>  <SCORE.INTRA>
-2.0975

>  <SCORE.INTRA.DIHEDRAL>
-4.45037

>  <SCORE.INTRA.DIHEDRAL.0>
8.98184

>  <SCORE.INTRA.POLAR>
0

>  <SCORE.INTRA.POLAR.0>
0

>  <SCORE.INTRA.REPUL>
0

>  <SCORE.INTRA.REPUL.0>
0

>  <SCORE.INTRA.VDW>
0.127685

>  <SCORE.INTRA.VDW.0>
-1.60828

>  <SCORE.INTRA.norm>
-0.104875

>  <SCORE.RESTR>
0

>  <SCORE.RESTR.CAVITY>
0

>  <SCORE.RESTR.norm>
0

>  <SCORE.SYSTEM>
-17.7776

>  <SCORE.SYSTEM.CONST>
0

>  <SCORE.SYSTEM.DIHEDRAL>
9.49537

>  <SCORE.SYSTEM.POLAR>
-5.59257

>  <SCORE.SYSTEM.REPUL>
0.0211857

>  <SCORE.SYSTEM.VDW>
-3.6165

>  <SCORE.SYSTEM.norm>
-0.888881

>  <SCORE.heavy>
20

>  <SCORE.norm>
-2.32596

$$$$

  rDOCK(R)          3D
libRbt.so/2013.1/901 2013/11/27
 25 26  0  0  0  0  0  0  0  0999 V2000
   -0.6366    4.6351   16.1222 C   0  0  0  0  0  0
   -0.8044    5.0273   14.7806 O   0  0  0  0  0  0
   -0.3673    5.7984   17.0359 C   0  0  0  0  0  0
   -1.0326    5.3755   18.3476 C   0  0  0  0  0  0
   -0.0105    5.0779   19.3777 N   0  0  0  0  0  0
   -0.0773    5.6831   20.6072 C   0  0  0  0  0  0
    0.8851    5.4349   21.5821 C   0  0  0  0  0  0
    1.9189    4.5476   21.2895 C   0  0  0  0  0  0
    2.8425    4.2868   22.1591 N   0  0  0  0  0  0
    1.9518    3.9429   20.0781 N   0  0  0  0  0  0
    1.0083    4.1822   19.1295 C   0  0  0  0  0  0
    1.1111    3.4857   17.9221 O   0  0  0  0  0  0
   -1.8659    4.2530   18.1129 O   0  0  0  0  0  0
   -1.8968    4.0219   16.7239 C   0  0  0  0  0  0
   -1.9982    2.5140   16.4534 C   0  0  0  0  0  0
   -1.1141    1.7970   17.2915 O   0  0  0  0  0  0
   -0.9818    0.1784   16.7614 P   0  0  0  0  0  0
    0.3179   -0.0109   16.0107 O   0  0  0  0  0  0
   -1.0507   -0.8941   18.0714 O   0  0  0  0  0  0
   -2.2689   -0.1567   15.7167 O   0  0  0  0  0  0
   -1.0265    4.2213   14.2448 H   0  0  0  0  0  0
    2.8594    4.7252   23.1080 H   0  0  0  0  0  0
    0.3640    2.9395   17.5166 H   0  0  0  0  0  0
   -1.9732   -0.8167   18.4234 H   0  0  0  0  0  0
   -2.1269    0.4454   14.9432 H   0  0  0  0  0  0
  1  2  1  0  0  0
  1  3  1  0  0  0
  3  4  1  0  0  0
  4  5  1  0  0  0
  5  6  1  0  0  0
  6  7  2  0  0  0
  7  8  1  0  0  0
  8  9  2  0  0  0
  8 10  1  0  0  0
 10 11  2  0  0  0
 11 12  1  0  0  0
  4 13  1  0  0  0
 13 14  1  0  0  0
 14 15  1  0  0  0
 15 16  1  0  0  0
 16 17  1  0  0  0
 17 18  2  0  0  0
 17 19  1  0  0  0
 17 20  1  0  0  0
 14  1  1  0  0  0
 11  5  1  0  0  0
  2 21  1  0  0  0
  9 22  1  0  0  0
 12 23  1  0  0  0
 19 24  1  0  0  0
 20 25  1  0  0  0
M  END
>  <CHROM.0>
-59.18822355,-74.62490022,77.43472104,-56.18093775,69.43818164,-48.60933067
-62.99258816,-161.42358649,-175.12442523,58.40328433,62.32398460,-169.70583793
35.91587729

>  <CHROM.1>
-176.97110232,127.31982255,-52.85447598,75.76747987,-167.79436891,102.39901017
67.12580895,63.87918557,-0.29313282,3.15240872,17.99646485,2.38271420,1.02524266
-3.10485891

>  <RI>
2.0734e+07

>  <Rbt.Current_Directory>
/extra/banzai2/j5wagner/CELPP/2016_10_17_rdock_implementation/normal_run/tutorialVideo/tutorial_rdock_implementation/full_week_run/4-docking/5wrn/LMCSS_1hvy_docking

>  <Rbt.Executable>
rbdock ($Id: //depot/dev/client3/rdock/2013.1/src/exe/rbdock.cxx#4 $)

>  <Rbt.Library>
libRbt.so (2013.1, Build901 2013/11/27)

>  <Rbt.Parameter_File>
/home/j5wagner/env_00/source/rDock/rDock_2013.1_src//data/scripts/dock.prm

>  <Rbt.Receptor>
/extra/banzai2/j5wagner/CELPP/2016_10_17_rdock_implementation/normal_run/tutorialVideo/tutorial_rdock_implementation/full_week_run/4-docking/5wrn/LMCSS_1hvy_tech_prep/rDockGridGenInput.prm

>  <SCORE>
-46.4293

>  <SCORE.INTER>
-23.8118

>  <SCORE.INTER.CONST>
1

>  <SCORE.INTER.POLAR>
-4.92548

>  <SCORE.INTER.REPUL>
0

>  <SCORE.INTER.ROT>
4

>  <SCORE.INTER.VDW>
-16.4652

>  <SCORE.INTER.norm>
-1.19059

>  <SCORE.INTRA>
-2.26453

>  <SCORE.INTRA.DIHEDRAL>
0.268311

>  <SCORE.INTRA.DIHEDRAL.0>
8.98184

>  <SCORE.INTRA.POLAR>
-1

>  <SCORE.INTRA.POLAR.0>
0

>  <SCORE.INTRA.REPUL>
0

>  <SCORE.INTRA.REPUL.0>
0

>  <SCORE.INTRA.VDW>
1.00131

>  <SCORE.INTRA.VDW.0>
-1.60828

>  <SCORE.INTRA.norm>
-0.113227

>  <SCORE.RESTR>
0

>  <SCORE.RESTR.CAVITY>
0

>  <SCORE.RESTR.norm>
0

>  <SCORE.SYSTEM>
-20.353

>  <SCORE.SYSTEM.CONST>
0

>  <SCORE.SYSTEM.DIHEDRAL>
5.57157

>  <SCORE.SYSTEM.POLAR>
-5.83919

>  <SCORE.SYSTEM.REPUL>
0.00157691

>  <SCORE.SYSTEM.VDW>
-3.29342

>  <SCORE.SYSTEM.norm>
-1.01765

>  <SCORE.heavy>
20

>  <SCORE.norm>
-2.32147

$$$$

  rDOCK(R)          3D
libRbt.so/2013.1/901 2013/11/27
 25 26  0  0  0  0  0  0  0  0999 V2000
   -1.9496    4.4999   17.9326 C   0  0  0  0  0  0
   -2.2425    4.3800   19.3044 O   0  0  0  0  0  0
   -0.9709    5.6042   17.6442 C   0  0  0  0  0  0
   -0.1861    5.0723   16.4428 C   0  0  0  0  0  0
   -0.5221    5.8388   15.2205 N   0  0  0  0  0  0
   -0.0751    7.1276   15.0729 C   0  0  0  0  0  0
   -0.3977    7.8736   13.9424 C   0  0  0  0  0  0
   -1.1792    7.2817   12.9523 C   0  0  0  0  0  0
   -1.5122    7.9341   11.8842 N   0  0  0  0  0  0
   -1.5892    6.0003   13.1075 N   0  0  0  0  0  0
   -1.2687    5.2717   14.2092 C   0  0  0  0  0  0
   -1.7127    3.9474   14.2628 O   0  0  0  0  0  0
   -0.4609    3.6919   16.2740 O   0  0  0  0  0  0
   -1.2448    3.2717   17.3661 C   0  0  0  0  0  0
   -2.2343    2.1916   16.9063 C   0  0  0  0  0  0
   -1.6723    1.4090   15.8720 O   0  0  0  0  0  0
   -0.5470    0.2981   16.5185 P   0  0  0  0  0  0
    0.8490    0.8751   16.4358 O   0  0  0  0  0  0
   -0.9213   -0.0732   18.1289 O   0  0  0  0  0  0
   -0.6041   -1.1245   15.6057 O   0  0  0  0  0  0
   -2.9768    3.7202   19.4107 H   0  0  0  0  0  0
   -1.2183    8.9233   11.7166 H   0  0  0  0  0  0
   -1.4004    3.2714   14.9459 H   0  0  0  0  0  0
   -1.8469   -0.4250   18.1069 H   0  0  0  0  0  0
   -0.2101   -1.8162   16.1949 H   0  0  0  0  0  0
  1  2  1  0  0  0
  1  3  1  0  0  0
  3  4  1  0  0  0
  4  5  1  0  0  0
  5  6  1  0  0  0
  6  7  2  0  0  0
  7  8  1  0  0  0
  8  9  2  0  0  0
  8 10  1  0  0  0
 10 11  2  0  0  0
 11 12  1  0  0  0
  4 13  1  0  0  0
 13 14  1  0  0  0
 14 15  1  0  0  0
 15 16  1  0  0  0
 16 17  1  0  0  0
 17 18  2  0  0  0
 17 19  1  0  0  0
 17 20  1  0  0  0
 14  1  1  0  0  0
 11  5  1  0  0  0
  2 21  1  0  0  0
  9 22  1  0  0  0
 12 23  1  0  0  0
 19 24  1  0  0  0
 20 25  1  0  0  0
M  END
>  <CHROM.0>
62.16304314,178.54201669,71.36740270,-54.49688100,-174.77810479,-169.62752526
-64.05351155,-165.62984959,-170.40097175,-71.06718933,-62.41400439,-167.05438866
-27.10131802

>  <CHROM.1>
172.66455704,71.94857537,-10.77027642,152.44238826,76.70608919,-95.11220791
57.30333006,-159.84346196,-1.00315132,3.68585630,15.86004159,1.37546912,-1.41484045
2.50020819

>  <RI>
2.0734e+07

>  <Rbt.Current_Directory>
/extra/banzai2/j5wagner/CELPP/2016_10_17_rdock_implementation/normal_run/tutorialVideo/tutorial_rdock_implementation/full_week_run/4-docking/5wrn/LMCSS_1hvy_docking

>  <Rbt.Executable>
rbdock ($Id: //depot/dev/client3/rdock/2013.1/src/exe/rbdock.cxx#4 $)

>  <Rbt.Library>
libRbt.so (2013.1, Build901 2013/11/27)

>  <Rbt.Parameter_File>
/home/j5wagner/env_00/source/rDock/rDock_2013.1_src//data/scripts/dock.prm

>  <Rbt.Receptor>
/extra/banzai2/j5wagner/CELPP/2016_10_17_rdock_implementation/normal_run/tutorialVideo/tutorial_rdock_implementation/full_week_run/4-docking/5wrn/LMCSS_1hvy_tech_prep/rDockGridGenInput.prm

>  <SCORE>
-46.4113

>  <SCORE.INTER>
-26.4976

>  <SCORE.INTER.CONST>
1

>  <SCORE.INTER.POLAR>
-5.44872

>  <SCORE.INTER.REPUL>
0.0987326

>  <SCORE.INTER.ROT>
4

>  <SCORE.INTER.VDW>
-17.8656

>  <SCORE.INTER.norm>
-1.32488

>  <SCORE.INTRA>
-3.16237

>  <SCORE.INTRA.DIHEDRAL>
-0.420642

>  <SCORE.INTRA.DIHEDRAL.0>
8.98184

>  <SCORE.INTRA.POLAR>
-1.42255

>  <SCORE.INTRA.POLAR.0>
0

>  <SCORE.INTRA.REPUL>
0

>  <SCORE.INTRA.REPUL.0>
0

>  <SCORE.INTRA.VDW>
1.88464

>  <SCORE.INTRA.VDW.0>
-1.60828

>  <SCORE.INTRA.norm>
-0.158118

>  <SCORE.RESTR>
0

>  <SCORE.RESTR.CAVITY>
0

>  <SCORE.RESTR.norm>
0

>  <SCORE.SYSTEM>
-16.7514

>  <SCORE.SYSTEM.CONST>
0

>  <SCORE.SYSTEM.DIHEDRAL>
3.71442

>  <SCORE.SYSTEM.POLAR>
-4.34422

>  <SCORE.SYSTEM.REPUL>
0.0608678

>  <SCORE.SYSTEM.VDW>
-4.14257

>  <SCORE.SYSTEM.norm>
-0.837568

>  <SCORE.heavy>
20

>  <SCORE.norm>
-2.32057

$$$$

  rDOCK(R)          3D
libRbt.so/2013.1/901 2013/11/27
 25 26  0  0  0  0  0  0  0  0999 V2000
   -1.5083    3.5454   17.6534 C   0  0  0  0  0  0
   -2.0237    3.0325   18.8589 O   0  0  0  0  0  0
   -1.3258    5.0374   17.6904 C   0  0  0  0  0  0
   -0.0968    5.2623   16.8067 C   0  0  0  0  0  0
   -0.4813    5.9241   15.5384 N   0  0  0  0  0  0
   -0.0203    7.1846   15.2535 C   0  0  0  0  0  0
   -0.3871    7.8338   14.0777 C   0  0  0  0  0  0
   -1.2281    7.1732   13.1846 C   0  0  0  0  0  0
   -1.6038    7.7350   12.0798 N   0  0  0  0  0  0
   -1.6517    5.9200   13.4745 N   0  0  0  0  0  0
   -1.2882    5.2856   14.6202 C   0  0  0  0  0  0
   -1.7516    3.9813   14.8146 O   0  0  0  0  0  0
    0.5427    4.0208   16.5638 O   0  0  0  0  0  0
   -0.1009    3.0437   17.3479 C   0  0  0  0  0  0
   -0.1092    1.7036   16.5988 C   0  0  0  0  0  0
   -0.4834    0.6510   17.4649 O   0  0  0  0  0  0
   -0.3082   -0.8533   16.6744 P   0  0  0  0  0  0
   -0.7268   -1.9724   17.6024 O   0  0  0  0  0  0
   -1.2366   -0.9033   15.2578 O   0  0  0  0  0  0
    1.3192   -1.0641   16.2650 O   0  0  0  0  0  0
   -2.2292    2.0701   18.7266 H   0  0  0  0  0  0
   -1.3018    8.6987   11.8096 H   0  0  0  0  0  0
   -2.7265    3.7339   14.9117 H   0  0  0  0  0  0
   -2.1639   -0.7093   15.5469 H   0  0  0  0  0  0
    1.3513   -1.9438   15.8112 H   0  0  0  0  0  0
  1  2  1  0  0  0
  1  3  1  0  0  0
  3  4  1  0  0  0
  4  5  1  0  0  0
  5  6  1  0  0  0
  6  7  2  0  0  0
  7  8  1  0  0  0
  8  9  2  0  0  0
  8 10  1  0  0  0
 10 11  2  0  0  0
 11 12  1  0  0  0
  4 13  1  0  0  0
 13 14  1  0  0  0
 14 15  1  0  0  0
 15 16  1  0  0  0
 16 17  1  0  0  0
 17 18  2  0  0  0
 17 19  1  0  0  0
 17 20  1  0  0  0
 14  1  1  0  0  0
 11  5  1  0  0  0
  2 21  1  0  0  0
  9 22  1  0  0  0
 12 23  1  0  0  0
 19 24  1  0  0  0
 20 25  1  0  0  0
M  END
>  <CHROM.0>
-55.82525786,-76.38037910,73.92435318,-55.74352056,68.84124996,70.18604289
-60.68067399,-162.74983826,1.51678545,-76.63138346,-65.51929099,-0.43476457
-166.62483441

>  <CHROM.1>
172.73819428,115.48742930,116.68460056,-72.80210162,-173.21756674,-179.30799743
-56.49941125,-179.75294511,-0.70520665,3.18257273,15.98278597,0.21890294
-1.48694294,1.44126030

>  <RI>
2.0734e+07

>  <Rbt.Current_Directory>
/extra/banzai2/j5wagner/CELPP/2016_10_17_rdock_implementation/normal_run/tutorialVideo/tutorial_rdock_implementation/full_week_run/4-docking/5wrn/LMCSS_1hvy_docking

>  <Rbt.Executable>
rbdock ($Id: //depot/dev/client3/rdock/2013.1/src/exe/rbdock.cxx#4 $)

>  <Rbt.Library>
libRbt.so (2013.1, Build901 2013/11/27)

>  <Rbt.Parameter_File>
/home/j5wagner/env_00/source/rDock/rDock_2013.1_src//data/scripts/dock.prm

>  <Rbt.Receptor>
/extra/banzai2/j5wagner/CELPP/2016_10_17_rdock_implementation/normal_run/tutorialVideo/tutorial_rdock_implementation/full_week_run/4-docking/5wrn/LMCSS_1hvy_tech_prep/rDockGridGenInput.prm

>  <SCORE>
-46.1919

>  <SCORE.INTER>
-24.9473

>  <SCORE.INTER.CONST>
1

>  <SCORE.INTER.POLAR>
-4.70889

>  <SCORE.INTER.REPUL>
0

>  <SCORE.INTER.ROT>
4

>  <SCORE.INTER.VDW>
-18.3371

>  <SCORE.INTER.norm>
-1.24736

>  <SCORE.INTRA>
-1.61986

>  <SCORE.INTRA.DIHEDRAL>
-1.60258

>  <SCORE.INTRA.DIHEDRAL.0>
8.98184

>  <SCORE.INTRA.POLAR>
0

>  <SCORE.INTRA.POLAR.0>
0

>  <SCORE.INTRA.REPUL>
0

>  <SCORE.INTRA.REPUL.0>
0

>  <SCORE.INTRA.VDW>
-0.818572

>  <SCORE.INTRA.VDW.0>
-1.60828

>  <SCORE.INTRA.norm>
-0.0809931

>  <SCORE.RESTR>
0

>  <SCORE.RESTR.CAVITY>
0

>  <SCORE.RESTR.norm>
0

>  <SCORE.SYSTEM>
-19.6248

>  <SCORE.SYSTEM.CONST>
0

>  <SCORE.SYSTEM.DIHEDRAL>
5.02703

>  <SCORE.SYSTEM.POLAR>
-5.73962

>  <SCORE.SYSTEM.REPUL>
0.0552553

>  <SCORE.SYSTEM.VDW>
-2.89985

>  <SCORE.SYSTEM.norm>
-0.981239

>  <SCORE.heavy>
20

>  <SCORE.norm>
-2.3096

$$$$

  rDOCK(R)          3D
libRbt.so/2013.1/901 2013/11/27
 25 26  0  0  0  0  0  0  0  0999 V2000
   -2.4555    4.8174   18.5802 C   0  0  0  0  0  0
   -2.9937    4.7845   19.8806 O   0  0  0  0  0  0
   -1.6440    6.0563   18.3208 C   0  0  0  0  0  0
   -0.5535    5.5675   17.3648 C   0  0  0  0  0  0
   -0.7632    6.1232   16.0077 N   0  0  0  0  0  0
    0.0334    7.1431   15.5520 C   0  0  0  0  0  0
   -0.1607    7.6951   14.2887 C   0  0  0  0  0  0
   -1.1781    7.1839   13.4856 C   0  0  0  0  0  0
   -1.4040    7.6659   12.3049 N   0  0  0  0  0  0
   -1.9367    6.1608   13.9459 N   0  0  0  0  0  0
   -1.7423    5.6195   15.1774 C   0  0  0  0  0  0
   -2.5560    4.5458   15.5499 O   0  0  0  0  0  0
   -0.5465    4.1502   17.3430 O   0  0  0  0  0  0
   -1.4499    3.6993   18.3249 C   0  0  0  0  0  0
   -2.1252    2.4048   17.8502 C   0  0  0  0  0  0
   -1.1581    1.4656   17.4249 O   0  0  0  0  0  0
   -1.9198    0.0197   16.9271 P   0  0  0  0  0  0
   -3.3872    0.2771   16.6641 O   0  0  0  0  0  0
   -1.1856   -0.6006   15.5316 O   0  0  0  0  0  0
   -1.7800   -1.1214   18.1675 O   0  0  0  0  0  0
   -3.5669    3.9778   19.9613 H   0  0  0  0  0  0
   -0.8446    8.4527   11.9038 H   0  0  0  0  0  0
   -3.4266    4.3090   15.0949 H   0  0  0  0  0  0
   -1.5192   -0.0366   14.7888 H   0  0  0  0  0  0
   -2.4707   -0.8600   18.8273 H   0  0  0  0  0  0
  1  2  1  0  0  0
  1  3  1  0  0  0
  3  4  1  0  0  0
  4  5  1  0  0  0
  5  6  1  0  0  0
  6  7  2  0  0  0
  7  8  1  0  0  0
  8  9  2  0  0  0
  8 10  1  0  0  0
 10 11  2  0  0  0
 11 12  1  0  0  0
  4 13  1  0  0  0
 13 14  1  0  0  0
 14 15  1  0  0  0
 15 16  1  0  0  0
 16 17  1  0  0  0
 17 18  2  0  0  0
 17 19  1  0  0  0
 17 20  1  0  0  0
 14  1  1  0  0  0
 11  5  1  0  0  0
  2 21  1  0  0  0
  9 22  1  0  0  0
 12 23  1  0  0  0
 19 24  1  0  0  0
 20 25  1  0  0  0
M  END
>  <CHROM.0>
-176.95162515,173.96422065,176.21919627,-55.44938739,70.01611017,-42.88686767
-60.63053574,-158.16913436,27.21026231,-64.68532623,-177.82023553,-170.99677423
-116.52003353

>  <CHROM.1>
176.00107134,104.85039839,162.87983137,170.80090240,178.93716084,17.67308673
-76.71739785,78.18270996,-1.60881273,3.77936165,16.51367104,0.57989327,1.41969385
0.60769147

>  <RI>
2.0734e+07

>  <Rbt.Current_Directory>
/extra/banzai2/j5wagner/CELPP/2016_10_17_rdock_implementation/normal_run/tutorialVideo/tutorial_rdock_implementation/full_week_run/4-docking/5wrn/LMCSS_1hvy_docking

>  <Rbt.Executable>
rbdock ($Id: //depot/dev/client3/rdock/2013.1/src/exe/rbdock.cxx#4 $)

>  <Rbt.Library>
libRbt.so (2013.1, Build901 2013/11/27)

>  <Rbt.Parameter_File>
/home/j5wagner/env_00/source/rDock/rDock_2013.1_src//data/scripts/dock.prm

>  <Rbt.Receptor>
/extra/banzai2/j5wagner/CELPP/2016_10_17_rdock_implementation/normal_run/tutorialVideo/tutorial_rdock_implementation/full_week_run/4-docking/5wrn/LMCSS_1hvy_tech_prep/rDockGridGenInput.prm

>  <SCORE>
-45.1429

>  <SCORE.INTER>
-27.3653

>  <SCORE.INTER.CONST>
1

>  <SCORE.INTER.POLAR>
-6.17302

>  <SCORE.INTER.REPUL>
0

>  <SCORE.INTER.ROT>
4

>  <SCORE.INTER.VDW>
-15.7771

>  <SCORE.INTER.norm>
-1.36827

>  <SCORE.INTRA>
-1.50322

>  <SCORE.INTRA.DIHEDRAL>
-2.94926

>  <SCORE.INTRA.DIHEDRAL.0>
8.98184

>  <SCORE.INTRA.POLAR>
0

>  <SCORE.INTRA.POLAR.0>
0

>  <SCORE.INTRA.REPUL>
0

>  <SCORE.INTRA.REPUL.0>
0

>  <SCORE.INTRA.VDW>
-0.0285845

>  <SCORE.INTRA.VDW.0>
-1.60828

>  <SCORE.INTRA.norm>
-0.0751608

>  <SCORE.RESTR>
0

>  <SCORE.RESTR.CAVITY>
0

>  <SCORE.RESTR.norm>
0

>  <SCORE.SYSTEM>
-16.2743

>  <SCORE.SYSTEM.CONST>
0

>  <SCORE.SYSTEM.DIHEDRAL>
7.30255

>  <SCORE.SYSTEM.POLAR>
-4.72547

>  <SCORE.SYSTEM.VDW>
-3.85903

>  <SCORE.SYSTEM.norm>
-0.813717

>  <SCORE.heavy>
20

>  <SCORE.norm>
-2.25714

$$$$

  rDOCK(R)          3D
libRbt.so/2013.1/901 2013/11/27
 25 26  0  0  0  0  0  0  0  0999 V2000
   -1.7275    4.1114   17.8399 C   0  0  0  0  0  0
   -2.1675    3.8167   19.1443 O   0  0  0  0  0  0
   -1.1790    5.5058   17.7154 C   0  0  0  0  0  0
   -0.0787    5.3570   16.6622 C   0  0  0  0  0  0
   -0.4729    6.0234   15.3993 N   0  0  0  0  0  0
   -0.0111    7.2834   15.1138 C   0  0  0  0  0  0
   -0.3869    7.9369   13.9432 C   0  0  0  0  0  0
   -1.2378    7.2811   13.0559 C   0  0  0  0  0  0
   -1.6220    7.8471   11.9562 N   0  0  0  0  0  0
   -1.6621    6.0282   13.3462 N   0  0  0  0  0  0
   -1.2899    5.3896   14.4868 C   0  0  0  0  0  0
   -1.7550    4.0860   14.6817 O   0  0  0  0  0  0
    0.1910    3.9811   16.4534 O   0  0  0  0  0  0
   -0.5492    3.2480   17.4012 C   0  0  0  0  0  0
   -0.9998    1.9154   16.7860 C   0  0  0  0  0  0
   -0.7424    0.8451   17.6728 O   0  0  0  0  0  0
   -0.7214   -0.6349   16.8198 P   0  0  0  0  0  0
   -1.8203   -0.6434   15.7801 O   0  0  0  0  0  0
    0.7793   -0.8804   16.0723 O   0  0  0  0  0  0
   -0.9959   -1.8950   17.9140 O   0  0  0  0  0  0
   -2.6906    2.9733   19.1147 H   0  0  0  0  0  0
   -1.3198    8.8107   11.6859 H   0  0  0  0  0  0
   -2.1807    3.5214   13.9598 H   0  0  0  0  0  0
    1.4092   -1.0776   16.8108 H   0  0  0  0  0  0
   -0.9383   -2.7186   17.3670 H   0  0  0  0  0  0
  1  2  1  0  0  0
  1  3  1  0  0  0
  3  4  1  0  0  0
  4  5  1  0  0  0
  5  6  1  0  0  0
  6  7  2  0  0  0
  7  8  1  0  0  0
  8  9  2  0  0  0
  8 10  1  0  0  0
 10 11  2  0  0  0
 11 12  1  0  0  0
  4 13  1  0  0  0
 13 14  1  0  0  0
 14 15  1  0  0  0
 15 16  1  0  0  0
 16 17  1  0  0  0
 17 18  2  0  0  0
 17 19  1  0  0  0
 17 20  1  0  0  0
 14  1  1  0  0  0
 11  5  1  0  0  0
  2 21  1  0  0  0
  9 22  1  0  0  0
 12 23  1  0  0  0
 19 24  1  0  0  0
 20 25  1  0  0  0
M  END
>  <CHROM.0>
62.38683334,177.37781680,66.79850160,-56.25302620,76.81241451,70.53043551
-61.28395271,-162.41152737,15.93956418,172.82441281,-63.82056848,-160.06736315
-168.87474148

>  <CHROM.1>
167.81596522,98.50569704,-166.13775169,-107.12778574,-160.27108236,-40.02980515
71.50849642,-177.97869275,-0.91689523,3.38408655,16.02489140,2.18672381,1.51920952
-1.00386888

>  <RI>
2.0734e+07

>  <Rbt.Current_Directory>
/extra/banzai2/j5wagner/CELPP/2016_10_17_rdock_implementation/normal_run/tutorialVideo/tutorial_rdock_implementation/full_week_run/4-docking/5wrn/LMCSS_1hvy_docking

>  <Rbt.Executable>
rbdock ($Id: //depot/dev/client3/rdock/2013.1/src/exe/rbdock.cxx#4 $)

>  <Rbt.Library>
libRbt.so (2013.1, Build901 2013/11/27)

>  <Rbt.Parameter_File>
/home/j5wagner/env_00/source/rDock/rDock_2013.1_src//data/scripts/dock.prm

>  <Rbt.Receptor>
/extra/banzai2/j5wagner/CELPP/2016_10_17_rdock_implementation/normal_run/tutorialVideo/tutorial_rdock_implementation/full_week_run/4-docking/5wrn/LMCSS_1hvy_tech_prep/rDockGridGenInput.prm

>  <SCORE>
-44.8506

>  <SCORE.INTER>
-27.0302

>  <SCORE.INTER.CONST>
1

>  <SCORE.INTER.POLAR>
-5.27891

>  <SCORE.INTER.REPUL>
0

>  <SCORE.INTER.ROT>
4

>  <SCORE.INTER.VDW>
-18.4819

>  <SCORE.INTER.norm>
-1.35151

>  <SCORE.INTRA>
0.544049

>  <SCORE.INTRA.DIHEDRAL>
1.74613

>  <SCORE.INTRA.DIHEDRAL.0>
8.98184

>  <SCORE.INTRA.POLAR>
0

>  <SCORE.INTRA.POLAR.0>
0

>  <SCORE.INTRA.REPUL>
0

>  <SCORE.INTRA.REPUL.0>
0

>  <SCORE.INTRA.VDW>
-0.329016

>  <SCORE.INTRA.VDW.0>
-1.60828

>  <SCORE.INTRA.norm>
0.0272025

>  <SCORE.RESTR>
0

>  <SCORE.RESTR.CAVITY>
0

>  <SCORE.RESTR.norm>
0

>  <SCORE.SYSTEM>
-18.3644

>  <SCORE.SYSTEM.CONST>
0

>  <SCORE.SYSTEM.DIHEDRAL>
3.83486

>  <SCORE.SYSTEM.POLAR>
-4.8108

>  <SCORE.SYSTEM.REPUL>
0.076596

>  <SCORE.SYSTEM.VDW>
-4.30807

>  <SCORE.SYSTEM.norm>
-0.91822

>  <SCORE.heavy>
20

>  <SCORE.norm>
-2.24253

$$$$

  rDOCK(R)          3D
libRbt.so/2013.1/901 2013/11/27
 25 26  0  0  0  0  0  0  0  0999 V2000
    4.9949    8.3236   13.2560 C   0  0  0  0  0  0
    5.7563    8.1107   12.0911 O   0  0  0  0  0  0
    4.1108    9.5356   13.1560 C   0  0  0  0  0  0
    2.8841    9.1441   13.9831 C   0  0  0  0  0  0
    2.8314    9.9273   15.2394 N   0  0  0  0  0  0
    3.7468    9.6930   16.2343 C   0  0  0  0  0  0
    3.7018   10.4020   17.4317 C   0  0  0  0  0  0
    2.7108   11.3669   17.5998 C   0  0  0  0  0  0
    2.6216   12.0498   18.6966 N   0  0  0  0  0  0
    1.8326   11.5987   16.5952 N   0  0  0  0  0  0
    1.8813   10.9095   15.4247 C   0  0  0  0  0  0
    0.9509   11.2429   14.4364 O   0  0  0  0  0  0
    2.9191    7.7519   14.2480 O   0  0  0  0  0  0
    3.9966    7.2026   13.5262 C   0  0  0  0  0  0
    4.6181    6.0482   14.3250 C   0  0  0  0  0  0
    5.9028    5.7325   13.8268 O   0  0  0  0  0  0
    6.5036    4.3288   14.5930 P   0  0  0  0  0  0
    5.4124    3.2846   14.6795 O   0  0  0  0  0  0
    7.8334    3.7024   13.7501 O   0  0  0  0  0  0
    6.9955    4.7348   16.1594 O   0  0  0  0  0  0
    6.3885    8.8694   11.9880 H   0  0  0  0  0  0
    3.2769   11.9103   19.4991 H   0  0  0  0  0  0
    0.9341   10.8350   13.5120 H   0  0  0  0  0  0
    8.1024    2.8923   14.2525 H   0  0  0  0  0  0
    7.4828    3.9360   16.4838 H   0  0  0  0  0  0
  1  2  1  0  0  0
  1  3  1  0  0  0
  3  4  1  0  0  0
  4  5  1  0  0  0
  5  6  1  0  0  0
  6  7  2  0  0  0
  7  8  1  0  0  0
  8  9  2  0  0  0
  8 10  1  0  0  0
 10 11  2  0  0  0
 11 12  1  0  0  0
  4 13  1  0  0  0
 13 14  1  0  0  0
 14 15  1  0  0  0
 15 16  1  0  0  0
 16 17  1  0  0  0
 17 18  2  0  0  0
 17 19  1  0  0  0
 17 20  1  0  0  0
 14  1  1  0  0  0
 11  5  1  0  0  0
  2 21  1  0  0  0
  9 22  1  0  0  0
 12 23  1  0  0  0
 19 24  1  0  0  0
 20 25  1  0  0  0
M  END
>  <CHROM.0>
63.30672752,-83.09227893,78.78707908,-55.07855684,-177.32656439,72.10230341
-59.81964134,-176.57761394,-162.69752440,-66.05936218,-66.82400996,6.87024660
12.48817877

>  <CHROM.1>
65.05042341,-70.13685256,-3.41740696,-43.58606339,-173.08826180,43.68507376
-179.12114276,-169.69130546,4.33386398,7.89385318,14.89017146,0.37641655
0.98094614,-1.72938552

>  <RI>
2.0734e+07

>  <Rbt.Current_Directory>
/extra/banzai2/j5wagner/CELPP/2016_10_17_rdock_implementation/normal_run/tutorialVideo/tutorial_rdock_implementation/full_week_run/4-docking/5wrn/LMCSS_1hvy_docking

>  <Rbt.Executable>
rbdock ($Id: //depot/dev/client3/rdock/2013.1/src/exe/rbdock.cxx#4 $)

>  <Rbt.Library>
libRbt.so (2013.1, Build901 2013/11/27)

>  <Rbt.Parameter_File>
/home/j5wagner/env_00/source/rDock/rDock_2013.1_src//data/scripts/dock.prm

>  <Rbt.Receptor>
/extra/banzai2/j5wagner/CELPP/2016_10_17_rdock_implementation/normal_run/tutorialVideo/tutorial_rdock_implementation/full_week_run/4-docking/5wrn/LMCSS_1hvy_tech_prep/rDockGridGenInput.prm

>  <SCORE>
-44.2451

>  <SCORE.INTER>
-23.9664

>  <SCORE.INTER.CONST>
1

>  <SCORE.INTER.POLAR>
-3.34734

>  <SCORE.INTER.REPUL>
0.0334592

>  <SCORE.INTER.ROT>
4

>  <SCORE.INTER.VDW>
-22.1527

>  <SCORE.INTER.norm>
-1.19832

>  <SCORE.INTRA>
-1.85198

>  <SCORE.INTRA.DIHEDRAL>
-4.64275

>  <SCORE.INTRA.DIHEDRAL.0>
8.98184

>  <SCORE.INTRA.POLAR>
0

>  <SCORE.INTRA.POLAR.0>
0

>  <SCORE.INTRA.REPUL>
0

>  <SCORE.INTRA.REPUL.0>
0

>  <SCORE.INTRA.VDW>
0.469398

>  <SCORE.INTRA.VDW.0>
-1.60828

>  <SCORE.INTRA.norm>
-0.0925988

>  <SCORE.RESTR>
0

>  <SCORE.RESTR.CAVITY>
0

>  <SCORE.RESTR.norm>
0

>  <SCORE.SYSTEM>
-18.4268

>  <SCORE.SYSTEM.CONST>
0

>  <SCORE.SYSTEM.DIHEDRAL>
5.62454

>  <SCORE.SYSTEM.POLAR>
-5.66355

>  <SCORE.SYSTEM.REPUL>
0.0568403

>  <SCORE.SYSTEM.VDW>
-2.26717

>  <SCORE.SYSTEM.norm>
-0.921338

>  <SCORE.heavy>
20

>  <SCORE.norm>
-2.21226

$$$$

  rDOCK(R)          3D
libRbt.so/2013.1/901 2013/11/27
 25 26  0  0  0  0  0  0  0  0999 V2000
   -1.8501    4.5345   18.2179 C   0  0  0  0  0  0
   -2.2132    4.4245   19.5736 O   0  0  0  0  0  0
   -1.0617    5.7817   17.9292 C   0  0  0  0  0  0
   -0.1136    5.3461   16.8097 C   0  0  0  0  0  0
   -0.4916    5.9863   15.5284 N   0  0  0  0  0  0
   -0.0439    7.2491   15.2327 C   0  0  0  0  0  0
   -0.4053    7.8781   14.0443 C   0  0  0  0  0  0
   -1.2267    7.1950   13.1499 C   0  0  0  0  0  0
   -1.5966    7.7375   12.0336 N   0  0  0  0  0  0
   -1.6371    5.9400   13.4511 N   0  0  0  0  0  0
   -1.2790    5.3253   14.6092 C   0  0  0  0  0  0
   -1.7273    4.0175   14.8151 O   0  0  0  0  0  0
   -0.1304    3.9328   16.7012 O   0  0  0  0  0  0
   -0.9034    3.4279   17.7647 C   0  0  0  0  0  0
   -1.6541    2.1697   17.3056 C   0  0  0  0  0  0
   -2.3668    1.5942   18.3823 O   0  0  0  0  0  0
   -2.8375   -0.0009   17.9917 P   0  0  0  0  0  0
   -3.6628    0.0036   16.7239 O   0  0  0  0  0  0
   -1.4829   -0.9991   17.7925 O   0  0  0  0  0  0
   -3.7816   -0.6120   19.2549 O   0  0  0  0  0  0
   -1.3832    4.3846   20.1172 H   0  0  0  0  0  0
   -1.3041    8.7016   11.7545 H   0  0  0  0  0  0
   -1.9988    3.3873   14.0733 H   0  0  0  0  0  0
   -1.8471   -1.9130   17.6780 H   0  0  0  0  0  0
   -3.3467   -0.2747   20.0783 H   0  0  0  0  0  0
  1  2  1  0  0  0
  1  3  1  0  0  0
  3  4  1  0  0  0
  4  5  1  0  0  0
  5  6  1  0  0  0
  6  7  2  0  0  0
  7  8  1  0  0  0
  8  9  2  0  0  0
  8 10  1  0  0  0
 10 11  2  0  0  0
 11 12  1  0  0  0
  4 13  1  0  0  0
 13 14  1  0  0  0
 14 15  1  0  0  0
 15 16  1  0  0  0
 16 17  1  0  0  0
 17 18  2  0  0  0
 17 19  1  0  0  0
 17 20  1  0  0  0
 14  1  1  0  0  0
 11  5  1  0  0  0
  2 21  1  0  0  0
  9 22  1  0  0  0
 12 23  1  0  0  0
 19 24  1  0  0  0
 20 25  1  0  0  0
M  END
>  <CHROM.0>
60.50017465,-78.06588565,78.19494852,-56.22938601,70.30020514,68.45133004
-61.75482234,-167.96435690,-0.36491474,65.04858760,179.47231867,-178.62442263
-14.12831845

>  <CHROM.1>
-61.27083254,84.45503318,-156.54257734,-64.13251885,-164.54898610,-56.95708974
173.46132198,-39.21731224,-1.65111882,3.64480903,16.54957104,-2.25902636
-1.20727152,-1.20752231

>  <RI>
2.0734e+07

>  <Rbt.Current_Directory>
/extra/banzai2/j5wagner/CELPP/2016_10_17_rdock_implementation/normal_run/tutorialVideo/tutorial_rdock_implementation/full_week_run/4-docking/5wrn/LMCSS_1hvy_docking

>  <Rbt.Executable>
rbdock ($Id: //depot/dev/client3/rdock/2013.1/src/exe/rbdock.cxx#4 $)

>  <Rbt.Library>
libRbt.so (2013.1, Build901 2013/11/27)

>  <Rbt.Parameter_File>
/home/j5wagner/env_00/source/rDock/rDock_2013.1_src//data/scripts/dock.prm

>  <Rbt.Receptor>
/extra/banzai2/j5wagner/CELPP/2016_10_17_rdock_implementation/normal_run/tutorialVideo/tutorial_rdock_implementation/full_week_run/4-docking/5wrn/LMCSS_1hvy_tech_prep/rDockGridGenInput.prm

>  <SCORE>
-43.8681

>  <SCORE.INTER>
-21.6218

>  <SCORE.INTER.CONST>
1

>  <SCORE.INTER.POLAR>
-3.40143

>  <SCORE.INTER.REPUL>
0.062184

>  <SCORE.INTER.ROT>
4

>  <SCORE.INTER.VDW>
-19.7679

>  <SCORE.INTER.norm>
-1.08109

>  <SCORE.INTRA>
-1.52322

>  <SCORE.INTRA.DIHEDRAL>
-3.89361

>  <SCORE.INTRA.DIHEDRAL.0>
8.98184

>  <SCORE.INTRA.POLAR>
0

>  <SCORE.INTRA.POLAR.0>
0

>  <SCORE.INTRA.REPUL>
0

>  <SCORE.INTRA.REPUL.0>
0

>  <SCORE.INTRA.VDW>
0.423579

>  <SCORE.INTRA.VDW.0>
-1.60828

>  <SCORE.INTRA.norm>
-0.0761612

>  <SCORE.RESTR>
0

>  <SCORE.RESTR.CAVITY>
0

>  <SCORE.RESTR.norm>
0

>  <SCORE.SYSTEM>
-20.7231

>  <SCORE.SYSTEM.CONST>
0

>  <SCORE.SYSTEM.DIHEDRAL>
4.49358

>  <SCORE.SYSTEM.POLAR>
-5.89672

>  <SCORE.SYSTEM.REPUL>
0.00303605

>  <SCORE.SYSTEM.VDW>
-2.93617

>  <SCORE.SYSTEM.norm>
-1.03615

>  <SCORE.heavy>
20

>  <SCORE.norm>
-2.19341

$$$$

  rDOCK(R)          3D
libRbt.so/2013.1/901 2013/11/27
 25 26  0  0  0  0  0  0  0  0999 V2000
   -2.4133    4.8324   18.6079 C   0  0  0  0  0  0
   -2.9404    4.8064   19.9131 O   0  0  0  0  0  0
   -1.5981    6.0664   18.3374 C   0  0  0  0  0  0
   -0.5183    5.5691   17.3736 C   0  0  0  0  0  0
   -0.7370    6.1214   16.0166 N   0  0  0  0  0  0
    0.0344    7.1626   15.5657 C   0  0  0  0  0  0
   -0.1690    7.7114   14.3025 C   0  0  0  0  0  0
   -1.1694    7.1751   13.4945 C   0  0  0  0  0  0
   -1.4032    7.6529   12.3136 N   0  0  0  0  0  0
   -1.9028    6.1317   13.9501 N   0  0  0  0  0  0
   -1.6992    5.5936   15.1815 C   0  0  0  0  0  0
   -2.4860    4.4983   15.5490 O   0  0  0  0  0  0
   -0.5185    4.1517   17.3565 O   0  0  0  0  0  0
   -1.4155    3.7086   18.3477 C   0  0  0  0  0  0
   -2.1012    2.4158   17.8831 C   0  0  0  0  0  0
   -1.1418    1.4658   17.4646 O   0  0  0  0  0  0
   -1.9172    0.0356   16.9432 P   0  0  0  0  0  0
   -3.3885    0.3036   16.7152 O   0  0  0  0  0  0
   -1.2115   -0.5493   15.5180 O   0  0  0  0  0  0
   -1.7572   -1.1385   18.1500 O   0  0  0  0  0  0
   -3.5142    4.0010   20.0025 H   0  0  0  0  0  0
   -0.8629    8.4548   11.9160 H   0  0  0  0  0  0
   -3.3463    4.2373   15.0877 H   0  0  0  0  0  0
   -1.5462    0.0440   14.7989 H   0  0  0  0  0  0
   -2.5327   -0.9902   18.7480 H   0  0  0  0  0  0
  1  2  1  0  0  0
  1  3  1  0  0  0
  3  4  1  0  0  0
  4  5  1  0  0  0
  5  6  1  0  0  0
  6  7  2  0  0  0
  7  8  1  0  0  0
  8  9  2  0  0  0
  8 10  1  0  0  0
 10 11  2  0  0  0
 11 12  1  0  0  0
  4 13  1  0  0  0
 13 14  1  0  0  0
 14 15  1  0  0  0
 15 16  1  0  0  0
 16 17  1  0  0  0
 17 18  2  0  0  0
 17 19  1  0  0  0
 17 20  1  0  0  0
 14  1  1  0  0  0
 11  5  1  0  0  0
  2 21  1  0  0  0
  9 22  1  0  0  0
 12 23  1  0  0  0
 19 24  1  0  0  0
 20 25  1  0  0  0
M  END
>  <CHROM.0>
69.96080700,-72.79019319,80.33196297,69.07229657,73.29860904,-40.36384650
-58.67352425,-157.04989539,-9.14974491,-63.99211788,-177.68426355,-155.07535857
-38.17398806

>  <CHROM.1>
176.20835208,102.90166688,163.13905286,171.35763357,-179.72699651,15.34863737
-75.84911110,87.79912896,-1.58754244,3.78278813,16.52812569,0.50093215,1.42406084
0.68592938

>  <RI>
2.0734e+07

>  <Rbt.Current_Directory>
/extra/banzai2/j5wagner/CELPP/2016_10_17_rdock_implementation/normal_run/tutorialVideo/tutorial_rdock_implementation/full_week_run/4-docking/5wrn/LMCSS_1hvy_docking

>  <Rbt.Executable>
rbdock ($Id: //depot/dev/client3/rdock/2013.1/src/exe/rbdock.cxx#4 $)

>  <Rbt.Library>
libRbt.so (2013.1, Build901 2013/11/27)

>  <Rbt.Parameter_File>
/home/j5wagner/env_00/source/rDock/rDock_2013.1_src//data/scripts/dock.prm

>  <Rbt.Receptor>
/extra/banzai2/j5wagner/CELPP/2016_10_17_rdock_implementation/normal_run/tutorialVideo/tutorial_rdock_implementation/full_week_run/4-docking/5wrn/LMCSS_1hvy_tech_prep/rDockGridGenInput.prm

>  <SCORE>
-43.5843

>  <SCORE.INTER>
-27.3539

>  <SCORE.INTER.CONST>
1

>  <SCORE.INTER.POLAR>
-6.13773

>  <SCORE.INTER.REPUL>
0.000967858

>  <SCORE.INTER.ROT>
4

>  <SCORE.INTER.VDW>
-15.8904

>  <SCORE.INTER.norm>
-1.36769

>  <SCORE.INTRA>
-1.15424

>  <SCORE.INTRA.DIHEDRAL>
-2.37469

>  <SCORE.INTRA.DIHEDRAL.0>
8.98184

>  <SCORE.INTRA.POLAR>
0

>  <SCORE.INTRA.POLAR.0>
0

>  <SCORE.INTRA.REPUL>
0

>  <SCORE.INTRA.REPUL.0>
0

>  <SCORE.INTRA.VDW>
0.0331072

>  <SCORE.INTRA.VDW.0>
-1.60828

>  <SCORE.INTRA.norm>
-0.0577119

>  <SCORE.RESTR>
0

>  <SCORE.RESTR.CAVITY>
0

>  <SCORE.RESTR.norm>
0

>  <SCORE.SYSTEM>
-15.0762

>  <SCORE.SYSTEM.CONST>
0

>  <SCORE.SYSTEM.DIHEDRAL>
8.77632

>  <SCORE.SYSTEM.POLAR>
-4.82453

>  <SCORE.SYSTEM.REPUL>
0.0881081

>  <SCORE.SYSTEM.VDW>
-3.50152

>  <SCORE.SYSTEM.norm>
-0.75381

>  <SCORE.heavy>
20

>  <SCORE.norm>
-2.17922

$$$$

  rDOCK(R)          3D
libRbt.so/2013.1/901 2013/11/27
 25 26  0  0  0  0  0  0  0  0999 V2000
    3.6782    6.9404   13.4057 C   0  0  0  0  0  0
    4.2255    5.7721   12.8423 O   0  0  0  0  0  0
    4.7031    8.0227   13.6028 C   0  0  0  0  0  0
    3.9030    9.3081   13.3800 C   0  0  0  0  0  0
    3.7314   10.0424   14.6551 N   0  0  0  0  0  0
    3.5527    9.3519   15.8272 C   0  0  0  0  0  0
    3.3673   10.0222   17.0334 C   0  0  0  0  0  0
    3.3764   11.4155   17.0314 C   0  0  0  0  0  0
    3.2026   12.0869   18.1252 N   0  0  0  0  0  0
    3.5786   12.0766   15.8668 N   0  0  0  0  0  0
    3.7649   11.4206   14.6911 C   0  0  0  0  0  0
    3.9972   12.1909   13.5482 O   0  0  0  0  0  0
    2.6497    8.9885   12.7998 O   0  0  0  0  0  0
    2.6519    7.6125   12.4995 C   0  0  0  0  0  0
    1.2405    7.0397   12.6916 C   0  0  0  0  0  0
    0.7382    7.3712   13.9707 O   0  0  0  0  0  0
   -0.7947    6.6545   14.2058 P   0  0  0  0  0  0
   -1.8057    7.2892   13.2765 O   0  0  0  0  0  0
   -0.7294    4.9839   13.9300 O   0  0  0  0  0  0
   -1.2790    6.9227   15.8038 O   0  0  0  0  0  0
    4.8060    5.3396   13.5218 H   0  0  0  0  0  0
    3.0459   11.6232   19.0491 H   0  0  0  0  0  0
    4.0322   11.8178   12.6098 H   0  0  0  0  0  0
   -1.6721    4.6804   13.9436 H   0  0  0  0  0  0
   -1.9253    6.1969   15.9948 H   0  0  0  0  0  0
  1  2  1  0  0  0
  1  3  1  0  0  0
  3  4  1  0  0  0
  4  5  1  0  0  0
  5  6  1  0  0  0
  6  7  2  0  0  0
  7  8  1  0  0  0
  8  9  2  0  0  0
  8 10  1  0  0  0
 10 11  2  0  0  0
 11 12  1  0  0  0
  4 13  1  0  0  0
 13 14  1  0  0  0
 14 15  1  0  0  0
 15 16  1  0  0  0
 16 17  1  0  0  0
 17 18  2  0  0  0
 17 19  1  0  0  0
 17 20  1  0  0  0
 14  1  1  0  0  0
 11  5  1  0  0  0
  2 21  1  0  0  0
  9 22  1  0  0  0
 12 23  1  0  0  0
 19 24  1  0  0  0
 20 25  1  0  0  0
M  END
>  <CHROM.0>
-178.18707063,177.75901999,67.47279217,-55.58492004,70.30280101,-44.73231192
-60.90118388,-160.16436931,-172.05332592,-66.14022432,63.43274115,-172.72211491
10.40030302

>  <CHROM.1>
70.25799179,-36.04745267,8.54954806,67.66063401,-176.80016796,-67.56462186
-171.15074037,-156.18075994,2.10995817,8.56088238,14.40398234,-2.32460394
0.42359925,0.72311732

>  <RI>
2.0734e+07

>  <Rbt.Current_Directory>
/extra/banzai2/j5wagner/CELPP/2016_10_17_rdock_implementation/normal_run/tutorialVideo/tutorial_rdock_implementation/full_week_run/4-docking/5wrn/LMCSS_1hvy_docking

>  <Rbt.Executable>
rbdock ($Id: //depot/dev/client3/rdock/2013.1/src/exe/rbdock.cxx#4 $)

>  <Rbt.Library>
libRbt.so (2013.1, Build901 2013/11/27)

>  <Rbt.Parameter_File>
/home/j5wagner/env_00/source/rDock/rDock_2013.1_src//data/scripts/dock.prm

>  <Rbt.Receptor>
/extra/banzai2/j5wagner/CELPP/2016_10_17_rdock_implementation/normal_run/tutorialVideo/tutorial_rdock_implementation/full_week_run/4-docking/5wrn/LMCSS_1hvy_tech_prep/rDockGridGenInput.prm

>  <SCORE>
-43.5659

>  <SCORE.INTER>
-23.0748

>  <SCORE.INTER.CONST>
1

>  <SCORE.INTER.POLAR>
-3.79056

>  <SCORE.INTER.REPUL>
9.39022e-05

>  <SCORE.INTER.ROT>
4

>  <SCORE.INTER.VDW>
-19.5873

>  <SCORE.INTER.norm>
-1.15374

>  <SCORE.INTRA>
-1.39289

>  <SCORE.INTRA.DIHEDRAL>
-4.64965

>  <SCORE.INTRA.DIHEDRAL.0>
8.98184

>  <SCORE.INTRA.POLAR>
0

>  <SCORE.INTRA.POLAR.0>
0

>  <SCORE.INTRA.REPUL>
0

>  <SCORE.INTRA.REPUL.0>
0

>  <SCORE.INTRA.VDW>
0.931931

>  <SCORE.INTRA.VDW.0>
-1.60828

>  <SCORE.INTRA.norm>
-0.0696447

>  <SCORE.RESTR>
0

>  <SCORE.RESTR.CAVITY>
0

>  <SCORE.RESTR.norm>
0

>  <SCORE.SYSTEM>
-19.0983

>  <SCORE.SYSTEM.CONST>
0

>  <SCORE.SYSTEM.DIHEDRAL>
2.61072

>  <SCORE.SYSTEM.POLAR>
-4.81183

>  <SCORE.SYSTEM.REPUL>
0.00325855

>  <SCORE.SYSTEM.VDW>
-4.05968

>  <SCORE.SYSTEM.norm>
-0.954913

>  <SCORE.heavy>
20

>  <SCORE.norm>
-2.1783

$$$$

  rDOCK(R)          3D
libRbt.so/2013.1/901 2013/11/27
 25 26  0  0  0  0  0  0  0  0999 V2000
   -1.4909    3.4419   17.6155 C   0  0  0  0  0  0
   -1.9596    2.9483   18.8478 O   0  0  0  0  0  0
   -1.1836    4.9130   17.6605 C   0  0  0  0  0  0
   -0.0063    5.0551   16.6931 C   0  0  0  0  0  0
   -0.4243    5.7715   15.4657 N   0  0  0  0  0  0
    0.0519    7.0327   15.2102 C   0  0  0  0  0  0
   -0.3452    7.7326   14.0741 C   0  0  0  0  0  0
   -1.2326    7.1226   13.1899 C   0  0  0  0  0  0
   -1.6377    7.7329   12.1218 N   0  0  0  0  0  0
   -1.6710    5.8678   13.4493 N   0  0  0  0  0  0
   -1.2780    5.1837   14.5561 C   0  0  0  0  0  0
   -1.7608    3.8822   14.7197 O   0  0  0  0  0  0
    0.5095    3.7707   16.3866 O   0  0  0  0  0  0
   -0.1551    2.8336   17.2013 C   0  0  0  0  0  0
   -0.3275    1.5140   16.4356 C   0  0  0  0  0  0
    0.8405    0.7241   16.5352 O   0  0  0  0  0  0
    0.4246   -0.9137   16.7869 P   0  0  0  0  0  0
   -0.0657   -1.5233   15.4921 O   0  0  0  0  0  0
    1.7518   -1.7915   17.3695 O   0  0  0  0  0  0
   -0.8195   -0.9874   17.9301 O   0  0  0  0  0  0
   -2.2557    2.0097   18.7163 H   0  0  0  0  0  0
   -1.3261    8.7000   11.8760 H   0  0  0  0  0  0
   -2.1104    3.3076   13.9657 H   0  0  0  0  0  0
    2.4930   -1.5888   16.7446 H   0  0  0  0  0  0
   -1.1499   -1.9198   17.8810 H   0  0  0  0  0  0
  1  2  1  0  0  0
  1  3  1  0  0  0
  3  4  1  0  0  0
  4  5  1  0  0  0
  5  6  1  0  0  0
  6  7  2  0  0  0
  7  8  1  0  0  0
  8  9  2  0  0  0
  8 10  1  0  0  0
 10 11  2  0  0  0
 11 12  1  0  0  0
  4 13  1  0  0  0
 13 14  1  0  0  0
 14 15  1  0  0  0
 15 16  1  0  0  0
 16 17  1  0  0  0
 17 18  2  0  0  0
 17 19  1  0  0  0
 17 20  1  0  0  0
 14  1  1  0  0  0
 11  5  1  0  0  0
  2 21  1  0  0  0
  9 22  1  0  0  0
 12 23  1  0  0  0
 19 24  1  0  0  0
 20 25  1  0  0  0
M  END
>  <CHROM.0>
-177.86846621,-177.68132926,70.33780663,-56.77136194,69.97076814,-49.10936850
-63.53407475,-169.53203246,2.97914812,64.79050064,-178.30577964,2.22607413
5.67359292

>  <CHROM.1>
172.54714520,111.26487808,-158.06897756,-156.45476198,138.33552146,75.58018794
-51.16252586,167.67611582,-0.46959982,3.07192145,15.99726524,0.87962412,-1.31221893
2.09160485

>  <RI>
2.0734e+07

>  <Rbt.Current_Directory>
/extra/banzai2/j5wagner/CELPP/2016_10_17_rdock_implementation/normal_run/tutorialVideo/tutorial_rdock_implementation/full_week_run/4-docking/5wrn/LMCSS_1hvy_docking

>  <Rbt.Executable>
rbdock ($Id: //depot/dev/client3/rdock/2013.1/src/exe/rbdock.cxx#4 $)

>  <Rbt.Library>
libRbt.so (2013.1, Build901 2013/11/27)

>  <Rbt.Parameter_File>
/home/j5wagner/env_00/source/rDock/rDock_2013.1_src//data/scripts/dock.prm

>  <Rbt.Receptor>
/extra/banzai2/j5wagner/CELPP/2016_10_17_rdock_implementation/normal_run/tutorialVideo/tutorial_rdock_implementation/full_week_run/4-docking/5wrn/LMCSS_1hvy_tech_prep/rDockGridGenInput.prm

>  <SCORE>
-43.5453

>  <SCORE.INTER>
-24.9021

>  <SCORE.INTER.CONST>
1

>  <SCORE.INTER.POLAR>
-4.72838

>  <SCORE.INTER.REPUL>
0.0017478

>  <SCORE.INTER.ROT>
4

>  <SCORE.INTER.VDW>
-18.2344

>  <SCORE.INTER.norm>
-1.24511

>  <SCORE.INTRA>
0.622366

>  <SCORE.INTRA.DIHEDRAL>
2.59516

>  <SCORE.INTRA.DIHEDRAL.0>
8.98184

>  <SCORE.INTRA.POLAR>
0

>  <SCORE.INTRA.POLAR.0>
0

>  <SCORE.INTRA.REPUL>
0

>  <SCORE.INTRA.REPUL.0>
0

>  <SCORE.INTRA.VDW>
-0.675213

>  <SCORE.INTRA.VDW.0>
-1.60828

>  <SCORE.INTRA.norm>
0.0311183

>  <SCORE.RESTR>
0

>  <SCORE.RESTR.CAVITY>
0

>  <SCORE.RESTR.norm>
0

>  <SCORE.SYSTEM>
-19.2655

>  <SCORE.SYSTEM.CONST>
0

>  <SCORE.SYSTEM.DIHEDRAL>
1.80522

>  <SCORE.SYSTEM.POLAR>
-4.81037

>  <SCORE.SYSTEM.REPUL>
0.00336908

>  <SCORE.SYSTEM.VDW>
-3.82975

>  <SCORE.SYSTEM.norm>
-0.963277

>  <SCORE.heavy>
20

>  <SCORE.norm>
-2.17726

$$$$

  rDOCK(R)          3D
libRbt.so/2013.1/901 2013/11/27
 25 26  0  0  0  0  0  0  0  0999 V2000
   -1.3006    5.0325   16.5372 C   0  0  0  0  0  0
   -1.6777    5.5057   15.2661 O   0  0  0  0  0  0
   -1.1418    6.1388   17.5429 C   0  0  0  0  0  0
   -1.5779    5.4845   18.8558 C   0  0  0  0  0  0
   -0.4147    5.2895   19.7521 N   0  0  0  0  0  0
   -0.4470    5.7740   21.0354 C   0  0  0  0  0  0
    0.6436    5.6213   21.8873 C   0  0  0  0  0  0
    1.7722    4.9549   21.4146 C   0  0  0  0  0  0
    2.8153    4.7914   22.1646 N   0  0  0  0  0  0
    1.7732    4.4635   20.1526 N   0  0  0  0  0  0
    0.7055    4.6086   19.3241 C   0  0  0  0  0  0
    0.7906    4.0391   18.0505 O   0  0  0  0  0  0
   -2.2227    4.2532   18.5774 O   0  0  0  0  0  0
   -2.3621    4.1458   17.1800 C   0  0  0  0  0  0
   -2.2270    2.6756   16.7589 C   0  0  0  0  0  0
   -1.1149    2.0760   17.3929 O   0  0  0  0  0  0
   -0.9454    0.4560   16.8777 P   0  0  0  0  0  0
    0.1434   -0.2253   17.6771 O   0  0  0  0  0  0
   -2.4031   -0.3897   17.0541 O   0  0  0  0  0  0
   -0.5079    0.4497   15.2441 O   0  0  0  0  0  0
   -1.7811    4.7258   14.6603 H   0  0  0  0  0  0
    2.8623    5.1492   23.1458 H   0  0  0  0  0  0
    0.1750    3.3131   17.7111 H   0  0  0  0  0  0
   -2.5809   -0.4024   18.0284 H   0  0  0  0  0  0
    0.2420    1.0938   15.1832 H   0  0  0  0  0  0
  1  2  1  0  0  0
  1  3  1  0  0  0
  3  4  1  0  0  0
  4  5  1  0  0  0
  5  6  1  0  0  0
  6  7  2  0  0  0
  7  8  1  0  0  0
  8  9  2  0  0  0
  8 10  1  0  0  0
 10 11  2  0  0  0
 11 12  1  0  0  0
  4 13  1  0  0  0
 13 14  1  0  0  0
 14 15  1  0  0  0
 15 16  1  0  0  0
 16 17  1  0  0  0
 17 18  2  0  0  0
 17 19  1  0  0  0
 17 20  1  0  0  0
 14  1  1  0  0  0
 11  5  1  0  0  0
  2 21  1  0  0  0
  9 22  1  0  0  0
 12 23  1  0  0  0
 19 24  1  0  0  0
 20 25  1  0  0  0
M  END
>  <CHROM.0>
62.70605590,-75.82026525,80.29154914,-56.40260337,72.30029705,70.92761856
-62.68701286,-166.04636791,-178.99719813,-178.33761138,-179.45574739,-3.48629587
176.21250469

>  <CHROM.1>
-178.91498106,126.50036695,-61.34682517,73.49858020,-178.17020442,-173.45015209
-63.92437316,48.76446768,-0.54344805,3.45349597,18.24029986,2.14587698,0.90449512
-2.84313389

>  <RI>
2.0734e+07

>  <Rbt.Current_Directory>
/extra/banzai2/j5wagner/CELPP/2016_10_17_rdock_implementation/normal_run/tutorialVideo/tutorial_rdock_implementation/full_week_run/4-docking/5wrn/LMCSS_1hvy_docking

>  <Rbt.Executable>
rbdock ($Id: //depot/dev/client3/rdock/2013.1/src/exe/rbdock.cxx#4 $)

>  <Rbt.Library>
libRbt.so (2013.1, Build901 2013/11/27)

>  <Rbt.Parameter_File>
/home/j5wagner/env_00/source/rDock/rDock_2013.1_src//data/scripts/dock.prm

>  <Rbt.Receptor>
/extra/banzai2/j5wagner/CELPP/2016_10_17_rdock_implementation/normal_run/tutorialVideo/tutorial_rdock_implementation/full_week_run/4-docking/5wrn/LMCSS_1hvy_tech_prep/rDockGridGenInput.prm

>  <SCORE>
-43.5332

>  <SCORE.INTER>
-18.3524

>  <SCORE.INTER.CONST>
1

>  <SCORE.INTER.POLAR>
-3.00364

>  <SCORE.INTER.REPUL>
0.0172814

>  <SCORE.INTER.ROT>
4

>  <SCORE.INTER.VDW>
-17.6265

>  <SCORE.INTER.norm>
-0.917621

>  <SCORE.INTRA>
-4.65713

>  <SCORE.INTRA.DIHEDRAL>
-1.84296

>  <SCORE.INTRA.DIHEDRAL.0>
8.98184

>  <SCORE.INTRA.POLAR>
-1

>  <SCORE.INTRA.POLAR.0>
0

>  <SCORE.INTRA.REPUL>
0

>  <SCORE.INTRA.REPUL.0>
0

>  <SCORE.INTRA.VDW>
-0.335644

>  <SCORE.INTRA.VDW.0>
-1.60828

>  <SCORE.INTRA.norm>
-0.232856

>  <SCORE.RESTR>
0

>  <SCORE.RESTR.CAVITY>
0

>  <SCORE.RESTR.norm>
0

>  <SCORE.SYSTEM>
-20.5236

>  <SCORE.SYSTEM.CONST>
0

>  <SCORE.SYSTEM.DIHEDRAL>
4.52605

>  <SCORE.SYSTEM.POLAR>
-5.92941

>  <SCORE.SYSTEM.REPUL>
0.0271877

>  <SCORE.SYSTEM.VDW>
-2.76261

>  <SCORE.SYSTEM.norm>
-1.02618

>  <SCORE.heavy>
20

>  <SCORE.norm>
-2.17666

$$$$

  rDOCK(R)          3D
libRbt.so/2013.1/901 2013/11/27
 25 26  0  0  0  0  0  0  0  0999 V2000
   -0.6901    7.4612   14.0771 C   0  0  0  0  0  0
   -1.9154    7.8927   13.5345 O   0  0  0  0  0  0
    0.4862    8.2156   13.5223 C   0  0  0  0  0  0
    1.4609    8.2618   14.7012 C   0  0  0  0  0  0
    2.6340    7.3953   14.4414 N   0  0  0  0  0  0
    3.0202    6.4641   15.3721 C   0  0  0  0  0  0
    4.1328    5.6549   15.1581 C   0  0  0  0  0  0
    4.8462    5.8008   13.9702 C   0  0  0  0  0  0
    5.8918    5.0769   13.7249 N   0  0  0  0  0  0
    4.4330    6.7093   13.0548 N   0  0  0  0  0  0
    3.3434    7.4947   13.2630 C   0  0  0  0  0  0
    2.9780    8.3803   12.2451 O   0  0  0  0  0  0
    0.7871    7.8709   15.8855 O   0  0  0  0  0  0
   -0.5789    7.7231   15.5755 C   0  0  0  0  0  0
   -1.1781    6.5841   16.4127 C   0  0  0  0  0  0
   -0.5642    5.3524   16.0898 O   0  0  0  0  0  0
   -1.4490    4.0575   16.7673 P   0  0  0  0  0  0
   -2.3602    4.5743   17.8588 O   0  0  0  0  0  0
   -2.3642    3.2652   15.5815 O   0  0  0  0  0  0
   -0.3613    2.9524   17.4424 O   0  0  0  0  0  0
   -1.8520    7.8476   12.5446 H   0  0  0  0  0  0
    6.2485    4.3606   14.3977 H   0  0  0  0  0  0
    3.5146    8.5281   11.4018 H   0  0  0  0  0  0
   -2.9315    2.6218   16.0767 H   0  0  0  0  0  0
    0.2556    2.7240   16.7021 H   0  0  0  0  0  0
  1  2  1  0  0  0
  1  3  1  0  0  0
  3  4  1  0  0  0
  4  5  1  0  0  0
  5  6  1  0  0  0
  6  7  2  0  0  0
  7  8  1  0  0  0
  8  9  2  0  0  0
  8 10  1  0  0  0
 10 11  2  0  0  0
 11 12  1  0  0  0
  4 13  1  0  0  0
 13 14  1  0  0  0
 14 15  1  0  0  0
 15 16  1  0  0  0
 16 17  1  0  0  0
 17 18  2  0  0  0
 17 19  1  0  0  0
 17 20  1  0  0  0
 14  1  1  0  0  0
 11  5  1  0  0  0
  2 21  1  0  0  0
  9 22  1  0  0  0
 12 23  1  0  0  0
 19 24  1  0  0  0
 20 25  1  0  0  0
M  END
>  <CHROM.0>
60.40243415,-82.79628056,78.42008238,-53.98079170,71.38810712,-167.93122982
-60.83378395,-174.04410103,4.09275139,-79.83791434,61.92033157,-173.66138994
-173.83892817

>  <CHROM.1>
53.89859894,-128.57799673,175.13253648,56.62660589,-167.96289102,-17.74692987
-172.40760121,-55.03187043,0.86388247,6.17033469,15.06655860,2.57198015,-0.22880677
2.58995640

>  <RI>
2.0734e+07

>  <Rbt.Current_Directory>
/extra/banzai2/j5wagner/CELPP/2016_10_17_rdock_implementation/normal_run/tutorialVideo/tutorial_rdock_implementation/full_week_run/4-docking/5wrn/LMCSS_1hvy_docking

>  <Rbt.Executable>
rbdock ($Id: //depot/dev/client3/rdock/2013.1/src/exe/rbdock.cxx#4 $)

>  <Rbt.Library>
libRbt.so (2013.1, Build901 2013/11/27)

>  <Rbt.Parameter_File>
/home/j5wagner/env_00/source/rDock/rDock_2013.1_src//data/scripts/dock.prm

>  <Rbt.Receptor>
/extra/banzai2/j5wagner/CELPP/2016_10_17_rdock_implementation/normal_run/tutorialVideo/tutorial_rdock_implementation/full_week_run/4-docking/5wrn/LMCSS_1hvy_tech_prep/rDockGridGenInput.prm

>  <SCORE>
-43.3264

>  <SCORE.INTER>
-23.4809

>  <SCORE.INTER.CONST>
1

>  <SCORE.INTER.POLAR>
-4.66901

>  <SCORE.INTER.REPUL>
0.0227875

>  <SCORE.INTER.ROT>
4

>  <SCORE.INTER.VDW>
-17.1202

>  <SCORE.INTER.norm>
-1.17404

>  <SCORE.INTRA>
0.241898

>  <SCORE.INTRA.DIHEDRAL>
-3.47512

>  <SCORE.INTRA.DIHEDRAL.0>
8.98184

>  <SCORE.INTRA.POLAR>
0

>  <SCORE.INTRA.POLAR.0>
0

>  <SCORE.INTRA.REPUL>
0

>  <SCORE.INTRA.REPUL.0>
0

>  <SCORE.INTRA.VDW>
1.97946

>  <SCORE.INTRA.VDW.0>
-1.60828

>  <SCORE.INTRA.norm>
0.0120949

>  <SCORE.RESTR>
0

>  <SCORE.RESTR.CAVITY>
0

>  <SCORE.RESTR.norm>
0

>  <SCORE.SYSTEM>
-20.0875

>  <SCORE.SYSTEM.CONST>
0

>  <SCORE.SYSTEM.DIHEDRAL>
6.97146

>  <SCORE.SYSTEM.POLAR>
-6.15309

>  <SCORE.SYSTEM.VDW>
-2.65268

>  <SCORE.SYSTEM.norm>
-1.00437

>  <SCORE.heavy>
20

>  <SCORE.norm>
-2.16632

$$$$

  rDOCK(R)          3D
libRbt.so/2013.1/901 2013/11/27
 25 26  0  0  0  0  0  0  0  0999 V2000
   -0.2981    7.6591   16.7391 C   0  0  0  0  0  0
   -0.3900    8.9152   17.3681 O   0  0  0  0  0  0
   -1.1736    6.6222   17.3866 C   0  0  0  0  0  0
   -1.5937    5.7352   16.2124 C   0  0  0  0  0  0
   -0.9454    4.4065   16.3053 N   0  0  0  0  0  0
    0.0411    4.1864   17.2331 C   0  0  0  0  0  0
    0.6790    2.9521   17.3227 C   0  0  0  0  0  0
    0.2891    1.9342   16.4548 C   0  0  0  0  0  0
    0.8546    0.7698   16.4930 N   0  0  0  0  0  0
   -0.7036    2.1659   15.5631 N   0  0  0  0  0  0
   -1.3290    3.3698   15.4807 C   0  0  0  0  0  0
   -2.3629    3.5013   14.5494 O   0  0  0  0  0  0
   -1.2671    6.3810   14.9935 O   0  0  0  0  0  0
   -0.8068    7.6759   15.3014 C   0  0  0  0  0  0
    0.2833    8.0879   14.3018 C   0  0  0  0  0  0
    1.3372    7.1459   14.2979 O   0  0  0  0  0  0
    2.3827    7.4367   12.9784 P   0  0  0  0  0  0
    1.6826    7.0896   11.6830 O   0  0  0  0  0  0
    2.8802    9.0562   12.9472 O   0  0  0  0  0  0
    3.7480    6.4520   13.1414 O   0  0  0  0  0  0
   -1.3326    9.2228   17.3156 H   0  0  0  0  0  0
    1.6224    0.5409   17.1646 H   0  0  0  0  0  0
   -3.2860    3.8476   14.7711 H   0  0  0  0  0  0
    3.7354    9.0566   12.4474 H   0  0  0  0  0  0
    4.3304    6.7035   12.3808 H   0  0  0  0  0  0
  1  2  1  0  0  0
  1  3  1  0  0  0
  3  4  1  0  0  0
  4  5  1  0  0  0
  5  6  1  0  0  0
  6  7  2  0  0  0
  7  8  1  0  0  0
  8  9  2  0  0  0
  8 10  1  0  0  0
 10 11  2  0  0  0
 11 12  1  0  0  0
  4 13  1  0  0  0
 13 14  1  0  0  0
 14 15  1  0  0  0
 15 16  1  0  0  0
 16 17  1  0  0  0
 17 18  2  0  0  0
 17 19  1  0  0  0
 17 20  1  0  0  0
 14  1  1  0  0  0
 11  5  1  0  0  0
  2 21  1  0  0  0
  9 22  1  0  0  0
 12 23  1  0  0  0
 19 24  1  0  0  0
 20 25  1  0  0  0
M  END
>  <CHROM.0>
-59.66001753,-83.29779638,78.53931654,-54.81689878,70.30038578,-168.47427710
-60.24309619,178.49251890,177.26000541,-169.19073622,62.73115178,-169.11062818
11.31738381

>  <CHROM.1>
-60.03741439,-9.35897520,-51.63609526,63.42242911,168.73101958,-69.67299122
156.13540186,-176.94135506,0.34859202,5.78357531,15.11658121,0.95965771,0.77683544
-0.07982540

>  <RI>
2.0734e+07

>  <Rbt.Current_Directory>
/extra/banzai2/j5wagner/CELPP/2016_10_17_rdock_implementation/normal_run/tutorialVideo/tutorial_rdock_implementation/full_week_run/4-docking/5wrn/LMCSS_1hvy_docking

>  <Rbt.Executable>
rbdock ($Id: //depot/dev/client3/rdock/2013.1/src/exe/rbdock.cxx#4 $)

>  <Rbt.Library>
libRbt.so (2013.1, Build901 2013/11/27)

>  <Rbt.Parameter_File>
/home/j5wagner/env_00/source/rDock/rDock_2013.1_src//data/scripts/dock.prm

>  <Rbt.Receptor>
/extra/banzai2/j5wagner/CELPP/2016_10_17_rdock_implementation/normal_run/tutorialVideo/tutorial_rdock_implementation/full_week_run/4-docking/5wrn/LMCSS_1hvy_tech_prep/rDockGridGenInput.prm

>  <SCORE>
-41.2447

>  <SCORE.INTER>
-22.246

>  <SCORE.INTER.CONST>
1

>  <SCORE.INTER.POLAR>
-3.44797

>  <SCORE.INTER.REPUL>
0.00192957

>  <SCORE.INTER.ROT>
4

>  <SCORE.INTER.VDW>
-19.9326

>  <SCORE.INTER.norm>
-1.1123

>  <SCORE.INTRA>
1.35665

>  <SCORE.INTRA.DIHEDRAL>
-2.00153

>  <SCORE.INTRA.DIHEDRAL.0>
8.98184

>  <SCORE.INTRA.POLAR>
0

>  <SCORE.INTRA.POLAR.0>
0

>  <SCORE.INTRA.REPUL>
0

>  <SCORE.INTRA.REPUL.0>
0

>  <SCORE.INTRA.VDW>
2.35742

>  <SCORE.INTRA.VDW.0>
-1.60828

>  <SCORE.INTRA.norm>
0.0678327

>  <SCORE.RESTR>
0

>  <SCORE.RESTR.CAVITY>
0

>  <SCORE.RESTR.norm>
0

>  <SCORE.SYSTEM>
-20.3553

>  <SCORE.SYSTEM.CONST>
0

>  <SCORE.SYSTEM.DIHEDRAL>
5.83258

>  <SCORE.SYSTEM.POLAR>
-6.14832

>  <SCORE.SYSTEM.REPUL>
0.0351513

>  <SCORE.SYSTEM.VDW>
-2.54309

>  <SCORE.SYSTEM.norm>
-1.01777

>  <SCORE.heavy>
20

>  <SCORE.norm>
-2.06223

$$$$

  rDOCK(R)          3D
libRbt.so/2013.1/901 2013/11/27
 25 26  0  0  0  0  0  0  0  0999 V2000
   -1.7534    4.4346   17.9243 C   0  0  0  0  0  0
   -2.2630    4.1464   19.2046 O   0  0  0  0  0  0
   -1.2943    5.8602   17.7916 C   0  0  0  0  0  0
   -0.1149    5.7599   16.8215 C   0  0  0  0  0  0
   -0.4639    6.3610   15.5134 N   0  0  0  0  0  0
    0.1291    7.5324   15.1151 C   0  0  0  0  0  0
   -0.2006    8.1262   13.8997 C   0  0  0  0  0  0
   -1.1422    7.5013   13.0848 C   0  0  0  0  0  0
   -1.4884    8.0152   11.9475 N   0  0  0  0  0  0
   -1.6971    6.3331   13.4866 N   0  0  0  0  0  0
   -1.3700    5.7519   14.6709 C   0  0  0  0  0  0
   -1.9735    4.5304   14.9827 O   0  0  0  0  0  0
    0.2623    4.4012   16.6771 O   0  0  0  0  0  0
   -0.4908    3.6446   17.5958 C   0  0  0  0  0  0
   -0.8046    2.2668   16.9955 C   0  0  0  0  0  0
    0.3801    1.5134   16.8313 O   0  0  0  0  0  0
    0.0032   -0.1397   16.6225 P   0  0  0  0  0  0
   -0.7685   -0.6454   17.8215 O   0  0  0  0  0  0
   -0.9046   -0.3791   15.2119 O   0  0  0  0  0  0
    1.4460   -1.0127   16.4947 O   0  0  0  0  0  0
   -1.5503    4.3257   19.8723 H   0  0  0  0  0  0
   -1.0869    8.9126   11.5920 H   0  0  0  0  0  0
   -2.6122    4.0406   14.3717 H   0  0  0  0  0  0
   -1.4831    0.4212   15.1352 H   0  0  0  0  0  0
    1.1724   -1.9614   16.5716 H   0  0  0  0  0  0
  1  2  1  0  0  0
  1  3  1  0  0  0
  3  4  1  0  0  0
  4  5  1  0  0  0
  5  6  1  0  0  0
  6  7  2  0  0  0
  7  8  1  0  0  0
  8  9  2  0  0  0
  8 10  1  0  0  0
 10 11  2  0  0  0
 11 12  1  0  0  0
  4 13  1  0  0  0
 13 14  1  0  0  0
 14 15  1  0  0  0
 15 16  1  0  0  0
 16 17  1  0  0  0
 17 18  2  0  0  0
 17 19  1  0  0  0
 17 20  1  0  0  0
 14  1  1  0  0  0
 11  5  1  0  0  0
  2 21  1  0  0  0
  9 22  1  0  0  0
 12 23  1  0  0  0
 19 24  1  0  0  0
 20 25  1  0  0  0
M  END
>  <CHROM.0>
-174.88661032,-72.76369756,78.85211805,179.82083366,72.02364658,69.97055812
-64.92859673,-167.12212163,16.05210594,58.69828716,-65.05069821,-172.46184455
84.83391133

>  <CHROM.1>
-58.92477932,110.59958090,-177.46015804,-174.05784412,162.93198556,-58.72245341
-35.09602429,168.28988903,-0.68040407,3.77496055,16.02401689,2.16677101,1.36286323
-0.94863035

>  <RI>
2.0734e+07

>  <Rbt.Current_Directory>
/extra/banzai2/j5wagner/CELPP/2016_10_17_rdock_implementation/normal_run/tutorialVideo/tutorial_rdock_implementation/full_week_run/4-docking/5wrn/LMCSS_1hvy_docking

>  <Rbt.Executable>
rbdock ($Id: //depot/dev/client3/rdock/2013.1/src/exe/rbdock.cxx#4 $)

>  <Rbt.Library>
libRbt.so (2013.1, Build901 2013/11/27)

>  <Rbt.Parameter_File>
/home/j5wagner/env_00/source/rDock/rDock_2013.1_src//data/scripts/dock.prm

>  <Rbt.Receptor>
/extra/banzai2/j5wagner/CELPP/2016_10_17_rdock_implementation/normal_run/tutorialVideo/tutorial_rdock_implementation/full_week_run/4-docking/5wrn/LMCSS_1hvy_tech_prep/rDockGridGenInput.prm

>  <SCORE>
-41.1517

>  <SCORE.INTER>
-25.2602

>  <SCORE.INTER.CONST>
1

>  <SCORE.INTER.POLAR>
-5.03328

>  <SCORE.INTER.REPUL>
0

>  <SCORE.INTER.ROT>
4

>  <SCORE.INTER.VDW>
-17.547

>  <SCORE.INTER.norm>
-1.26301

>  <SCORE.INTRA>
-2.19141

>  <SCORE.INTRA.DIHEDRAL>
-3.92519

>  <SCORE.INTRA.DIHEDRAL.0>
8.98184

>  <SCORE.INTRA.POLAR>
0

>  <SCORE.INTRA.POLAR.0>
0

>  <SCORE.INTRA.REPUL>
0

>  <SCORE.INTRA.REPUL.0>
0

>  <SCORE.INTRA.VDW>
-0.228811

>  <SCORE.INTRA.VDW.0>
-1.60828

>  <SCORE.INTRA.norm>
-0.10957

>  <SCORE.RESTR>
0

>  <SCORE.RESTR.CAVITY>
0

>  <SCORE.RESTR.norm>
0

>  <SCORE.SYSTEM>
-13.7001

>  <SCORE.SYSTEM.CONST>
0

>  <SCORE.SYSTEM.DIHEDRAL>
9.13348

>  <SCORE.SYSTEM.POLAR>
-4.65667

>  <SCORE.SYSTEM.REPUL>
0.198571

>  <SCORE.SYSTEM.VDW>
-3.42703

>  <SCORE.SYSTEM.norm>
-0.685005

>  <SCORE.heavy>
20

>  <SCORE.norm>
-2.05758

$$$$

  rDOCK(R)          3D
libRbt.so/2013.1/901 2013/11/27
 25 26  0  0  0  0  0  0  0  0999 V2000
   -1.2653    4.6957   18.2005 C   0  0  0  0  0  0
   -1.9510    4.3175   19.3705 O   0  0  0  0  0  0
   -0.0483    5.5308   18.4873 C   0  0  0  0  0  0
    0.9235    5.1276   17.3760 C   0  0  0  0  0  0
    1.1032    6.2387   16.4128 N   0  0  0  0  0  0
    2.3045    6.8975   16.3398 C   0  0  0  0  0  0
    2.4880    7.9588   15.4575 C   0  0  0  0  0  0
    1.4269    8.3367   14.6374 C   0  0  0  0  0  0
    1.5437    9.3209   13.8038 N   0  0  0  0  0  0
    0.2578    7.6568   14.7088 N   0  0  0  0  0  0
    0.0821    6.6174   15.5668 C   0  0  0  0  0  0
   -1.1506    5.9589   15.5443 O   0  0  0  0  0  0
    0.4425    3.9614   16.7295 O   0  0  0  0  0  0
   -0.6841    3.5069   17.4421 C   0  0  0  0  0  0
   -1.6953    2.8858   16.4679 C   0  0  0  0  0  0
   -1.0475    2.0049   15.5721 O   0  0  0  0  0  0
   -0.3010    0.7324   16.4334 P   0  0  0  0  0  0
   -0.9239    0.6074   17.8063 O   0  0  0  0  0  0
   -0.4527   -0.7337   15.5975 O   0  0  0  0  0  0
    1.3427    1.0891   16.6107 O   0  0  0  0  0  0
   -2.7366    3.7696   19.1090 H   0  0  0  0  0  0
    2.4257    9.8742   13.7091 H   0  0  0  0  0  0
   -1.9594    6.2502   16.0753 H   0  0  0  0  0  0
   -1.4277   -0.8829   15.5077 H   0  0  0  0  0  0
    1.3710    2.0657   16.7727 H   0  0  0  0  0  0
  1  2  1  0  0  0
  1  3  1  0  0  0
  3  4  1  0  0  0
  4  5  1  0  0  0
  5  6  1  0  0  0
  6  7  2  0  0  0
  7  8  1  0  0  0
  8  9  2  0  0  0
  8 10  1  0  0  0
 10 11  2  0  0  0
 11 12  1  0  0  0
  4 13  1  0  0  0
 13 14  1  0  0  0
 14 15  1  0  0  0
 15 16  1  0  0  0
 16 17  1  0  0  0
 17 18  2  0  0  0
 17 19  1  0  0  0
 17 20  1  0  0  0
 14  1  1  0  0  0
 11  5  1  0  0  0
  2 21  1  0  0  0
  9 22  1  0  0  0
 12 23  1  0  0  0
 19 24  1  0  0  0
 20 25  1  0  0  0
M  END
>  <CHROM.0>
60.98631542,173.02292836,-62.24253648,-55.69027536,71.08030739,-168.23834082
-63.17187141,-160.01588341,6.96698704,-169.09203377,-179.61000448,-0.90457403
-29.55885617

>  <CHROM.1>
-179.82194026,111.12612724,94.09097671,166.46282149,60.84319992,20.07850788
-59.49226454,38.16111613,0.03865053,4.26112346,16.44860890,2.02537040,-0.98004799
-2.96686674

>  <RI>
2.0734e+07

>  <Rbt.Current_Directory>
/extra/banzai2/j5wagner/CELPP/2016_10_17_rdock_implementation/normal_run/tutorialVideo/tutorial_rdock_implementation/full_week_run/4-docking/5wrn/LMCSS_1hvy_docking

>  <Rbt.Executable>
rbdock ($Id: //depot/dev/client3/rdock/2013.1/src/exe/rbdock.cxx#4 $)

>  <Rbt.Library>
libRbt.so (2013.1, Build901 2013/11/27)

>  <Rbt.Parameter_File>
/home/j5wagner/env_00/source/rDock/rDock_2013.1_src//data/scripts/dock.prm

>  <Rbt.Receptor>
/extra/banzai2/j5wagner/CELPP/2016_10_17_rdock_implementation/normal_run/tutorialVideo/tutorial_rdock_implementation/full_week_run/4-docking/5wrn/LMCSS_1hvy_tech_prep/rDockGridGenInput.prm

>  <SCORE>
-40.9655

>  <SCORE.INTER>
-21.0759

>  <SCORE.INTER.CONST>
1

>  <SCORE.INTER.POLAR>
-4.72012

>  <SCORE.INTER.REPUL>
0.00160949

>  <SCORE.INTER.ROT>
4

>  <SCORE.INTER.VDW>
-14.4355

>  <SCORE.INTER.norm>
-1.0538

>  <SCORE.INTRA>
-2.82836

>  <SCORE.INTRA.DIHEDRAL>
1.30052

>  <SCORE.INTRA.DIHEDRAL.0>
8.98184

>  <SCORE.INTRA.POLAR>
-1

>  <SCORE.INTRA.POLAR.0>
0

>  <SCORE.INTRA.REPUL>
0

>  <SCORE.INTRA.REPUL.0>
0

>  <SCORE.INTRA.VDW>
-0.0786218

>  <SCORE.INTRA.VDW.0>
-1.60828

>  <SCORE.INTRA.norm>
-0.141418

>  <SCORE.RESTR>
0

>  <SCORE.RESTR.CAVITY>
0

>  <SCORE.RESTR.norm>
0

>  <SCORE.SYSTEM>
-17.0612

>  <SCORE.SYSTEM.CONST>
0

>  <SCORE.SYSTEM.DIHEDRAL>
3.86349

>  <SCORE.SYSTEM.POLAR>
-4.69068

>  <SCORE.SYSTEM.REPUL>
0.0339355

>  <SCORE.SYSTEM.VDW>
-3.21436

>  <SCORE.SYSTEM.norm>
-0.853062

>  <SCORE.heavy>
20

>  <SCORE.norm>
-2.04828

$$$$

  rDOCK(R)          3D
libRbt.so/2013.1/901 2013/11/27
 25 26  0  0  0  0  0  0  0  0999 V2000
    3.4988    6.8835   13.3399 C   0  0  0  0  0  0
    4.0675    5.9441   12.4589 O   0  0  0  0  0  0
    4.4964    7.8970   13.8280 C   0  0  0  0  0  0
    3.6561    9.1654   13.9922 C   0  0  0  0  0  0
    3.4892    9.4976   15.4262 N   0  0  0  0  0  0
    3.9764   10.6821   15.9184 C   0  0  0  0  0  0
    3.8502   11.0043   17.2670 C   0  0  0  0  0  0
    3.2076   10.1020   18.1120 C   0  0  0  0  0  0
    3.0693   10.3511   19.3754 N   0  0  0  0  0  0
    2.7129    8.9498   17.6002 N   0  0  0  0  0  0
    2.8322    8.6393   16.2824 C   0  0  0  0  0  0
    2.2612    7.4411   15.8440 O   0  0  0  0  0  0
    2.4011    8.9846   13.3585 O   0  0  0  0  0  0
    2.4361    7.7530   12.6760 C   0  0  0  0  0  0
    1.0455    7.1033   12.7111 C   0  0  0  0  0  0
    0.6482    6.8487   14.0436 O   0  0  0  0  0  0
   -0.9878    6.3585   14.0873 P   0  0  0  0  0  0
   -1.5272    6.4961   15.4940 O   0  0  0  0  0  0
   -1.9243    7.2826   13.0195 O   0  0  0  0  0  0
   -1.0795    4.7345   13.6244 O   0  0  0  0  0  0
    4.0644    6.3313   11.5446 H   0  0  0  0  0  0
    3.4307   11.2269   19.8173 H   0  0  0  0  0  0
    1.3791    7.0776   16.1770 H   0  0  0  0  0  0
   -1.7886    8.2227   13.3003 H   0  0  0  0  0  0
   -0.7177    4.2328   14.3978 H   0  0  0  0  0  0
  1  2  1  0  0  0
  1  3  1  0  0  0
  3  4  1  0  0  0
  4  5  1  0  0  0
  5  6  1  0  0  0
  6  7  2  0  0  0
  7  8  1  0  0  0
  8  9  2  0  0  0
  8 10  1  0  0  0
 10 11  2  0  0  0
 11 12  1  0  0  0
  4 13  1  0  0  0
 13 14  1  0  0  0
 14 15  1  0  0  0
 15 16  1  0  0  0
 16 17  1  0  0  0
 17 18  2  0  0  0
 17 19  1  0  0  0
 17 20  1  0  0  0
 14  1  1  0  0  0
 11  5  1  0  0  0
  2 21  1  0  0  0
  9 22  1  0  0  0
 12 23  1  0  0  0
 19 24  1  0  0  0
 20 25  1  0  0  0
M  END
>  <CHROM.0>
62.04048268,173.50362404,65.88745311,-59.82737908,70.96965661,68.10455520
-63.34954125,-170.54495979,0.90162562,-65.84045289,63.75556526,175.07075927
170.49831330

>  <CHROM.1>
-84.56656278,118.19996195,-141.13057056,58.59907542,171.09188875,-162.76400236
-57.05950994,73.15670285,1.82379064,7.90722957,14.81071440,-2.30939352,0.35790844
1.05560070

>  <RI>
2.0734e+07

>  <Rbt.Current_Directory>
/extra/banzai2/j5wagner/CELPP/2016_10_17_rdock_implementation/normal_run/tutorialVideo/tutorial_rdock_implementation/full_week_run/4-docking/5wrn/LMCSS_1hvy_docking

>  <Rbt.Executable>
rbdock ($Id: //depot/dev/client3/rdock/2013.1/src/exe/rbdock.cxx#4 $)

>  <Rbt.Library>
libRbt.so (2013.1, Build901 2013/11/27)

>  <Rbt.Parameter_File>
/home/j5wagner/env_00/source/rDock/rDock_2013.1_src//data/scripts/dock.prm

>  <Rbt.Receptor>
/extra/banzai2/j5wagner/CELPP/2016_10_17_rdock_implementation/normal_run/tutorialVideo/tutorial_rdock_implementation/full_week_run/4-docking/5wrn/LMCSS_1hvy_tech_prep/rDockGridGenInput.prm

>  <SCORE>
-40.4157

>  <SCORE.INTER>
-21.0772

>  <SCORE.INTER.CONST>
1

>  <SCORE.INTER.POLAR>
-3.90365

>  <SCORE.INTER.REPUL>
0

>  <SCORE.INTER.ROT>
4

>  <SCORE.INTER.VDW>
-17.2048

>  <SCORE.INTER.norm>
-1.05386

>  <SCORE.INTRA>
-0.48837

>  <SCORE.INTRA.DIHEDRAL>
-0.905583

>  <SCORE.INTRA.DIHEDRAL.0>
8.98184

>  <SCORE.INTRA.POLAR>
0

>  <SCORE.INTRA.POLAR.0>
0

>  <SCORE.INTRA.REPUL>
0

>  <SCORE.INTRA.REPUL.0>
0

>  <SCORE.INTRA.VDW>
-0.0355787

>  <SCORE.INTRA.VDW.0>
-1.60828

>  <SCORE.INTRA.norm>
-0.0244185

>  <SCORE.RESTR>
0

>  <SCORE.RESTR.CAVITY>
0

>  <SCORE.RESTR.norm>
0

>  <SCORE.SYSTEM>
-18.8501

>  <SCORE.SYSTEM.CONST>
0

>  <SCORE.SYSTEM.DIHEDRAL>
1.7881

>  <SCORE.SYSTEM.POLAR>
-4.68978

>  <SCORE.SYSTEM.VDW>
-3.7989

>  <SCORE.SYSTEM.norm>
-0.942505

>  <SCORE.heavy>
20

>  <SCORE.norm>
-2.02078

$$$$

  rDOCK(R)          3D
libRbt.so/2013.1/901 2013/11/27
 25 26  0  0  0  0  0  0  0  0999 V2000
   -0.8085    7.4955   18.1332 C   0  0  0  0  0  0
   -1.9491    7.6558   18.9428 O   0  0  0  0  0  0
   -0.0224    8.7682   17.9823 C   0  0  0  0  0  0
    1.4230    8.2770   17.8752 C   0  0  0  0  0  0
    1.9410    8.4780   16.5020 N   0  0  0  0  0  0
    1.7107    7.5320   15.5352 C   0  0  0  0  0  0
    2.2073    7.6903   14.2441 C   0  0  0  0  0  0
    2.9387    8.8382   13.9459 C   0  0  0  0  0  0
    3.4275    9.0308   12.7622 N   0  0  0  0  0  0
    3.1333    9.7703   14.9089 N   0  0  0  0  0  0
    2.6431    9.6168   16.1673 C   0  0  0  0  0  0
    2.8699   10.6488   17.0822 O   0  0  0  0  0  0
    1.4860    6.9119   18.2522 O   0  0  0  0  0  0
    0.2161    6.5385   18.7334 C   0  0  0  0  0  0
   -0.0662    5.0752   18.3642 C   0  0  0  0  0  0
   -0.0476    4.9029   16.9613 O   0  0  0  0  0  0
   -1.0397    3.5852   16.5162 P   0  0  0  0  0  0
   -0.6074    2.3424   17.2627 O   0  0  0  0  0  0
   -2.6684    3.9167   16.8460 O   0  0  0  0  0  0
   -0.8661    3.3126   14.8562 O   0  0  0  0  0  0
   -2.6343    8.1519   18.4228 H   0  0  0  0  0  0
    3.3021    8.3431   11.9848 H   0  0  0  0  0  0
    3.3898   11.4894   16.8722 H   0  0  0  0  0  0
   -2.9231    4.6313   16.2092 H   0  0  0  0  0  0
   -1.5319    2.6099   14.6468 H   0  0  0  0  0  0
  1  2  1  0  0  0
  1  3  1  0  0  0
  3  4  1  0  0  0
  4  5  1  0  0  0
  5  6  1  0  0  0
  6  7  2  0  0  0
  7  8  1  0  0  0
  8  9  2  0  0  0
  8 10  1  0  0  0
 10 11  2  0  0  0
 11 12  1  0  0  0
  4 13  1  0  0  0
 13 14  1  0  0  0
 14 15  1  0  0  0
 15 16  1  0  0  0
 16 17  1  0  0  0
 17 18  2  0  0  0
 17 19  1  0  0  0
 17 20  1  0  0  0
 14  1  1  0  0  0
 11  5  1  0  0  0
  2 21  1  0  0  0
  9 22  1  0  0  0
 12 23  1  0  0  0
 19 24  1  0  0  0
 20 25  1  0  0  0
M  END
>  <CHROM.0>
-177.52096989,-76.29594143,78.41852328,-55.27434333,-178.76143519,-167.44697764
-61.34413147,-163.56234881,-174.11910898,64.08724206,-66.88331494,-170.68236681
9.20035985

>  <CHROM.1>
74.38747182,-85.46659881,179.18298000,59.52051179,-153.04273148,-55.29324164
68.28390208,-174.12457256,0.60409258,6.73229921,16.61499358,2.71459039,-0.90113462
-2.37267470

>  <RI>
2.0734e+07

>  <Rbt.Current_Directory>
/extra/banzai2/j5wagner/CELPP/2016_10_17_rdock_implementation/normal_run/tutorialVideo/tutorial_rdock_implementation/full_week_run/4-docking/5wrn/LMCSS_1hvy_docking

>  <Rbt.Executable>
rbdock ($Id: //depot/dev/client3/rdock/2013.1/src/exe/rbdock.cxx#4 $)

>  <Rbt.Library>
libRbt.so (2013.1, Build901 2013/11/27)

>  <Rbt.Parameter_File>
/home/j5wagner/env_00/source/rDock/rDock_2013.1_src//data/scripts/dock.prm

>  <Rbt.Receptor>
/extra/banzai2/j5wagner/CELPP/2016_10_17_rdock_implementation/normal_run/tutorialVideo/tutorial_rdock_implementation/full_week_run/4-docking/5wrn/LMCSS_1hvy_tech_prep/rDockGridGenInput.prm

>  <SCORE>
-40.4024

>  <SCORE.INTER>
-19.8273

>  <SCORE.INTER.CONST>
1

>  <SCORE.INTER.POLAR>
-4.57488

>  <SCORE.INTER.REPUL>
0.0249058

>  <SCORE.INTER.ROT>
4

>  <SCORE.INTER.VDW>
-13.7973

>  <SCORE.INTER.norm>
-0.991367

>  <SCORE.INTRA>
-1.54067

>  <SCORE.INTRA.DIHEDRAL>
-2.23387

>  <SCORE.INTRA.DIHEDRAL.0>
8.98184

>  <SCORE.INTRA.POLAR>
0

>  <SCORE.INTRA.POLAR.0>
0

>  <SCORE.INTRA.REPUL>
0

>  <SCORE.INTRA.REPUL.0>
0

>  <SCORE.INTRA.VDW>
-0.423737

>  <SCORE.INTRA.VDW.0>
-1.60828

>  <SCORE.INTRA.norm>
-0.0770335

>  <SCORE.RESTR>
0

>  <SCORE.RESTR.CAVITY>
0

>  <SCORE.RESTR.norm>
0

>  <SCORE.SYSTEM>
-19.0344

>  <SCORE.SYSTEM.CONST>
0

>  <SCORE.SYSTEM.DIHEDRAL>
4.31663

>  <SCORE.SYSTEM.POLAR>
-5.46867

>  <SCORE.SYSTEM.REPUL>
0.0568716

>  <SCORE.SYSTEM.VDW>
-2.88362

>  <SCORE.SYSTEM.norm>
-0.951721

>  <SCORE.heavy>
20

>  <SCORE.norm>
-2.02012

$$$$

  rDOCK(R)          3D
libRbt.so/2013.1/901 2013/11/27
 25 26  0  0  0  0  0  0  0  0999 V2000
   -0.7488    5.8311   19.0424 C   0  0  0  0  0  0
   -0.7212    6.7529   20.1062 O   0  0  0  0  0  0
   -1.4833    4.5665   19.3914 C   0  0  0  0  0  0
   -2.1181    4.1514   18.0622 C   0  0  0  0  0  0
   -1.4620    2.9350   17.5291 N   0  0  0  0  0  0
   -2.1270    1.7349   17.5391 C   0  0  0  0  0  0
   -1.5210    0.5752   17.0635 C   0  0  0  0  0  0
   -0.2225    0.6564   16.5646 C   0  0  0  0  0  0
    0.3883   -0.3938   16.1159 N   0  0  0  0  0  0
    0.4062    1.8557   16.5418 N   0  0  0  0  0  0
   -0.1889    2.9879   17.0015 C   0  0  0  0  0  0
    0.5298    4.1830   16.9066 O   0  0  0  0  0  0
   -2.0306    5.2263   17.1422 O   0  0  0  0  0  0
   -1.5220    6.3440   17.8320 C   0  0  0  0  0  0
   -0.6428    7.1770   16.8884 C   0  0  0  0  0  0
   -1.3124    7.4185   15.6671 O   0  0  0  0  0  0
   -0.1924    7.8789   14.4620 P   0  0  0  0  0  0
    0.3658    9.2492   14.7772 O   0  0  0  0  0  0
    1.0709    6.7552   14.3500 O   0  0  0  0  0  0
   -0.9939    7.9454   12.9743 O   0  0  0  0  0  0
   -0.1946    6.3571   20.8491 H   0  0  0  0  0  0
   -0.0551   -1.3405   16.1092 H   0  0  0  0  0  0
    1.4602    4.2564   16.5193 H   0  0  0  0  0  0
    1.5434    6.8067   15.2190 H   0  0  0  0  0  0
   -0.3244    8.3160   12.3455 H   0  0  0  0  0  0
  1  2  1  0  0  0
  1  3  1  0  0  0
  3  4  1  0  0  0
  4  5  1  0  0  0
  5  6  1  0  0  0
  6  7  2  0  0  0
  7  8  1  0  0  0
  8  9  2  0  0  0
  8 10  1  0  0  0
 10 11  2  0  0  0
 11 12  1  0  0  0
  4 13  1  0  0  0
 13 14  1  0  0  0
 14 15  1  0  0  0
 15 16  1  0  0  0
 16 17  1  0  0  0
 17 18  2  0  0  0
 17 19  1  0  0  0
 17 20  1  0  0  0
 14  1  1  0  0  0
 11  5  1  0  0  0
  2 21  1  0  0  0
  9 22  1  0  0  0
 12 23  1  0  0  0
 19 24  1  0  0  0
 20 25  1  0  0  0
M  END
>  <CHROM.0>
-67.29347340,-82.59473053,76.58199676,-56.08198543,71.76013395,-167.74586476
-62.97954549,-162.50757874,16.62365460,65.48019965,61.78427985,4.37553720
-174.65585998

>  <CHROM.1>
64.94074753,108.40228916,-179.51408025,168.87099524,-161.61915276,-68.95703981
-64.64558707,173.61640411,-0.65663364,5.01891134,16.60498441,1.79625713,-1.27241567
3.01020654

>  <RI>
2.0734e+07

>  <Rbt.Current_Directory>
/extra/banzai2/j5wagner/CELPP/2016_10_17_rdock_implementation/normal_run/tutorialVideo/tutorial_rdock_implementation/full_week_run/4-docking/5wrn/LMCSS_1hvy_docking

>  <Rbt.Executable>
rbdock ($Id: //depot/dev/client3/rdock/2013.1/src/exe/rbdock.cxx#4 $)

>  <Rbt.Library>
libRbt.so (2013.1, Build901 2013/11/27)

>  <Rbt.Parameter_File>
/home/j5wagner/env_00/source/rDock/rDock_2013.1_src//data/scripts/dock.prm

>  <Rbt.Receptor>
/extra/banzai2/j5wagner/CELPP/2016_10_17_rdock_implementation/normal_run/tutorialVideo/tutorial_rdock_implementation/full_week_run/4-docking/5wrn/LMCSS_1hvy_tech_prep/rDockGridGenInput.prm

>  <SCORE>
-39.9251

>  <SCORE.INTER>
-16.4705

>  <SCORE.INTER.CONST>
1

>  <SCORE.INTER.POLAR>
-2.73736

>  <SCORE.INTER.REPUL>
0

>  <SCORE.INTER.ROT>
4

>  <SCORE.INTER.VDW>
-16.5635

>  <SCORE.INTER.norm>
-0.823526

>  <SCORE.INTRA>
-2.80466

>  <SCORE.INTRA.DIHEDRAL>
-4.26594

>  <SCORE.INTRA.DIHEDRAL.0>
8.98184

>  <SCORE.INTRA.POLAR>
0

>  <SCORE.INTRA.POLAR.0>
0

>  <SCORE.INTRA.REPUL>
0

>  <SCORE.INTRA.REPUL.0>
0

>  <SCORE.INTRA.VDW>
-0.671694

>  <SCORE.INTRA.VDW.0>
-1.60828

>  <SCORE.INTRA.norm>
-0.140233

>  <SCORE.RESTR>
0

>  <SCORE.RESTR.CAVITY>
0

>  <SCORE.RESTR.norm>
0

>  <SCORE.SYSTEM>
-20.6499

>  <SCORE.SYSTEM.CONST>
0

>  <SCORE.SYSTEM.DIHEDRAL>
5.90112

>  <SCORE.SYSTEM.POLAR>
-6.12525

>  <SCORE.SYSTEM.VDW>
-2.77462

>  <SCORE.SYSTEM.norm>
-1.0325

>  <SCORE.heavy>
20

>  <SCORE.norm>
-1.99625

$$$$

  rDOCK(R)          3D
libRbt.so/2013.1/901 2013/11/27
 25 26  0  0  0  0  0  0  0  0999 V2000
   -0.3097    8.4895   17.6626 C   0  0  0  0  0  0
   -1.5079    9.0695   18.1206 O   0  0  0  0  0  0
    0.5731    9.4739   16.9468 C   0  0  0  0  0  0
    1.9849    8.9924   17.2891 C   0  0  0  0  0  0
    2.6431    8.4167   16.0934 N   0  0  0  0  0  0
    3.3815    9.2201   15.2616 C   0  0  0  0  0  0
    3.9900    8.7042   14.1205 C   0  0  0  0  0  0
    3.8437    7.3470   13.8411 C   0  0  0  0  0  0
    4.3845    6.8188   12.7896 N   0  0  0  0  0  0
    3.1308    6.5677   14.6888 N   0  0  0  0  0  0
    2.5419    7.0719   15.8052 C   0  0  0  0  0  0
    1.8537    6.1814   16.6341 O   0  0  0  0  0  0
    1.9176    8.0464   18.3427 O   0  0  0  0  0  0
    0.5852    8.0007   18.7968 C   0  0  0  0  0  0
    0.2388    6.5717   19.2385 C   0  0  0  0  0  0
   -1.0697    6.5180   19.7704 O   0  0  0  0  0  0
   -1.4782    4.9079   20.1695 P   0  0  0  0  0  0
   -1.0998    3.9856   19.0317 O   0  0  0  0  0  0
   -0.6941    4.4201   21.5902 O   0  0  0  0  0  0
   -3.1493    4.8170   20.4126 O   0  0  0  0  0  0
   -1.9847    8.4016   18.6797 H   0  0  0  0  0  0
    4.9462    7.3771   12.1071 H   0  0  0  0  0  0
    1.7638    5.1914   16.4529 H   0  0  0  0  0  0
   -1.1111    4.9523   22.3141 H   0  0  0  0  0  0
   -3.4350    4.0230   19.8942 H   0  0  0  0  0  0
  1  2  1  0  0  0
  1  3  1  0  0  0
  3  4  1  0  0  0
  4  5  1  0  0  0
  5  6  1  0  0  0
  6  7  2  0  0  0
  7  8  1  0  0  0
  8  9  2  0  0  0
  8 10  1  0  0  0
 10 11  2  0  0  0
 11 12  1  0  0  0
  4 13  1  0  0  0
 13 14  1  0  0  0
 14 15  1  0  0  0
 15 16  1  0  0  0
 16 17  1  0  0  0
 17 18  2  0  0  0
 17 19  1  0  0  0
 17 20  1  0  0  0
 14  1  1  0  0  0
 11  5  1  0  0  0
  2 21  1  0  0  0
  9 22  1  0  0  0
 12 23  1  0  0  0
 19 24  1  0  0  0
 20 25  1  0  0  0
M  END
>  <CHROM.0>
55.82162743,-84.92912810,79.75655524,-58.72680855,73.36435838,70.99779390
-58.39519628,-170.86334343,173.18938313,-66.14704385,-174.52745732,1.03161795
-39.34924286

>  <CHROM.1>
-172.82236434,90.03358242,-179.80076390,-63.58824588,176.55276884,-46.44771658
68.59791907,132.67571235,0.81435801,6.96463651,17.62196935,2.73766636,-0.82265134
3.06241178

>  <RI>
2.0734e+07

>  <Rbt.Current_Directory>
/extra/banzai2/j5wagner/CELPP/2016_10_17_rdock_implementation/normal_run/tutorialVideo/tutorial_rdock_implementation/full_week_run/4-docking/5wrn/LMCSS_1hvy_docking

>  <Rbt.Executable>
rbdock ($Id: //depot/dev/client3/rdock/2013.1/src/exe/rbdock.cxx#4 $)

>  <Rbt.Library>
libRbt.so (2013.1, Build901 2013/11/27)

>  <Rbt.Parameter_File>
/home/j5wagner/env_00/source/rDock/rDock_2013.1_src//data/scripts/dock.prm

>  <Rbt.Receptor>
/extra/banzai2/j5wagner/CELPP/2016_10_17_rdock_implementation/normal_run/tutorialVideo/tutorial_rdock_implementation/full_week_run/4-docking/5wrn/LMCSS_1hvy_tech_prep/rDockGridGenInput.prm

>  <SCORE>
-39.3833

>  <SCORE.INTER>
-16.9637

>  <SCORE.INTER.CONST>
1

>  <SCORE.INTER.POLAR>
-2.85207

>  <SCORE.INTER.REPUL>
0

>  <SCORE.INTER.ROT>
4

>  <SCORE.INTER.VDW>
-16.6666

>  <SCORE.INTER.norm>
-0.848184

>  <SCORE.INTRA>
-2.64407

>  <SCORE.INTRA.DIHEDRAL>
-3.6266

>  <SCORE.INTRA.DIHEDRAL.0>
8.98184

>  <SCORE.INTRA.POLAR>
-0.219398

>  <SCORE.INTRA.POLAR.0>
0

>  <SCORE.INTRA.REPUL>
0

>  <SCORE.INTRA.REPUL.0>
0

>  <SCORE.INTRA.VDW>
-0.0848165

>  <SCORE.INTRA.VDW.0>
-1.60828

>  <SCORE.INTRA.norm>
-0.132203

>  <SCORE.RESTR>
0

>  <SCORE.RESTR.CAVITY>
0

>  <SCORE.RESTR.norm>
0

>  <SCORE.SYSTEM>
-19.7755

>  <SCORE.SYSTEM.CONST>
0

>  <SCORE.SYSTEM.DIHEDRAL>
8.19421

>  <SCORE.SYSTEM.POLAR>
-6.25528

>  <SCORE.SYSTEM.REPUL>
0.00104953

>  <SCORE.SYSTEM.VDW>
-2.60995

>  <SCORE.SYSTEM.norm>
-0.988777

>  <SCORE.heavy>
20

>  <SCORE.norm>
-1.96916

$$$$

  rDOCK(R)          3D
libRbt.so/2013.1/901 2013/11/27
 25 26  0  0  0  0  0  0  0  0999 V2000
   -1.3825    4.9373   17.4515 C   0  0  0  0  0  0
   -1.7867    6.0670   18.1880 O   0  0  0  0  0  0
   -1.9584    3.6578   17.9918 C   0  0  0  0  0  0
   -2.1484    2.8016   16.7376 C   0  0  0  0  0  0
   -1.1814    1.6795   16.7216 N   0  0  0  0  0  0
   -1.6272    0.3865   16.8313 C   0  0  0  0  0  0
   -0.7341   -0.6816   16.8408 C   0  0  0  0  0  0
    0.6284   -0.4140   16.7263 C   0  0  0  0  0  0
    1.5009   -1.3711   16.7358 N   0  0  0  0  0  0
    1.0445    0.8680   16.5947 N   0  0  0  0  0  0
    0.1709    1.9092   16.5801 C   0  0  0  0  0  0
    0.6951    3.1935   16.4081 O   0  0  0  0  0  0
   -2.0083    3.6156   15.5856 O   0  0  0  0  0  0
   -1.8913    4.9523   16.0138 C   0  0  0  0  0  0
   -0.9514    5.7164   15.0704 C   0  0  0  0  0  0
   -1.6459    6.1480   13.9173 O   0  0  0  0  0  0
   -0.7710    7.3873   13.1317 P   0  0  0  0  0  0
   -1.6382    8.0378   12.0765 O   0  0  0  0  0  0
   -0.2451    8.5534   14.2429 O   0  0  0  0  0  0
    0.5814    6.7036   12.3808 O   0  0  0  0  0  0
   -1.4537    5.9691   19.1183 H   0  0  0  0  0  0
    1.2300   -2.3762   16.8318 H   0  0  0  0  0  0
    1.6816    3.4113   16.4293 H   0  0  0  0  0  0
    0.3790    9.1328   13.7371 H   0  0  0  0  0  0
    1.2759    6.6827   13.0866 H   0  0  0  0  0  0
  1  2  1  0  0  0
  1  3  1  0  0  0
  3  4  1  0  0  0
  4  5  1  0  0  0
  5  6  1  0  0  0
  6  7  2  0  0  0
  7  8  1  0  0  0
  8  9  2  0  0  0
  8 10  1  0  0  0
 10 11  2  0  0  0
 11 12  1  0  0  0
  4 13  1  0  0  0
 13 14  1  0  0  0
 14 15  1  0  0  0
 15 16  1  0  0  0
 16 17  1  0  0  0
 17 18  2  0  0  0
 17 19  1  0  0  0
 17 20  1  0  0  0
 14  1  1  0  0  0
 11  5  1  0  0  0
  2 21  1  0  0  0
  9 22  1  0  0  0
 12 23  1  0  0  0
 19 24  1  0  0  0
 20 25  1  0  0  0
M  END
>  <CHROM.0>
-178.05620313,-76.63092499,177.20498419,-56.03631666,71.87512120,-47.70124860
-60.99536050,-174.82202646,-176.05534173,179.84644840,-178.41881082,0.77418803
-44.96193482

>  <CHROM.1>
61.84889528,113.71990556,171.17833813,-157.87849714,162.02951429,-168.38151247
170.14814996,-85.93971075,-0.75176440,4.08922166,15.58634890,1.73244417,0.93901064
-0.58499016

>  <RI>
2.0734e+07

>  <Rbt.Current_Directory>
/extra/banzai2/j5wagner/CELPP/2016_10_17_rdock_implementation/normal_run/tutorialVideo/tutorial_rdock_implementation/full_week_run/4-docking/5wrn/LMCSS_1hvy_docking

>  <Rbt.Executable>
rbdock ($Id: //depot/dev/client3/rdock/2013.1/src/exe/rbdock.cxx#4 $)

>  <Rbt.Library>
libRbt.so (2013.1, Build901 2013/11/27)

>  <Rbt.Parameter_File>
/home/j5wagner/env_00/source/rDock/rDock_2013.1_src//data/scripts/dock.prm

>  <Rbt.Receptor>
/extra/banzai2/j5wagner/CELPP/2016_10_17_rdock_implementation/normal_run/tutorialVideo/tutorial_rdock_implementation/full_week_run/4-docking/5wrn/LMCSS_1hvy_tech_prep/rDockGridGenInput.prm

>  <SCORE>
-39.3454

>  <SCORE.INTER>
-20.4001

>  <SCORE.INTER.CONST>
1

>  <SCORE.INTER.POLAR>
-2.6409

>  <SCORE.INTER.REPUL>
0

>  <SCORE.INTER.ROT>
4

>  <SCORE.INTER.VDW>
-20.821

>  <SCORE.INTER.norm>
-1.02

>  <SCORE.INTRA>
-1.51215

>  <SCORE.INTRA.DIHEDRAL>
-2.03951

>  <SCORE.INTRA.DIHEDRAL.0>
8.98184

>  <SCORE.INTRA.POLAR>
0

>  <SCORE.INTRA.POLAR.0>
0

>  <SCORE.INTRA.REPUL>
0

>  <SCORE.INTRA.REPUL.0>
0

>  <SCORE.INTRA.VDW>
-0.492394

>  <SCORE.INTRA.VDW.0>
-1.60828

>  <SCORE.INTRA.norm>
-0.0756076

>  <SCORE.RESTR>
0

>  <SCORE.RESTR.CAVITY>
0

>  <SCORE.RESTR.norm>
0

>  <SCORE.SYSTEM>
-17.4332

>  <SCORE.SYSTEM.CONST>
0

>  <SCORE.SYSTEM.DIHEDRAL>
5.07458

>  <SCORE.SYSTEM.POLAR>
-5.4086

>  <SCORE.SYSTEM.REPUL>
0.0262794

>  <SCORE.SYSTEM.VDW>
-1.71268

>  <SCORE.SYSTEM.norm>
-0.871662

>  <SCORE.heavy>
20

>  <SCORE.norm>
-1.96727

$$$$

  rDOCK(R)          3D
libRbt.so/2013.1/901 2013/11/27
 25 26  0  0  0  0  0  0  0  0999 V2000
   -0.1297    8.5798   15.8688 C   0  0  0  0  0  0
   -0.7175    7.3026   15.7962 O   0  0  0  0  0  0
   -0.5883    9.3605   17.0691 C   0  0  0  0  0  0
    0.6416   10.1940   17.4361 C   0  0  0  0  0  0
    0.4074   11.6264   17.1399 N   0  0  0  0  0  0
    0.3235   12.0545   15.8390 C   0  0  0  0  0  0
    0.1260   13.3994   15.5378 C   0  0  0  0  0  0
    0.0042   14.3079   16.5872 C   0  0  0  0  0  0
   -0.1745   15.5706   16.3611 N   0  0  0  0  0  0
    0.0659   13.8600   17.8638 N   0  0  0  0  0  0
    0.2532   12.5459   18.1560 C   0  0  0  0  0  0
    0.2713   12.1774   19.5042 O   0  0  0  0  0  0
    1.7705    9.7031   16.7332 O   0  0  0  0  0  0
    1.3823    8.5277   16.0613 C   0  0  0  0  0  0
    2.1367    8.4219   14.7282 C   0  0  0  0  0  0
    2.7801    7.1680   14.6182 O   0  0  0  0  0  0
    3.4725    6.9952   13.0660 P   0  0  0  0  0  0
    4.3211    5.7437   13.0192 O   0  0  0  0  0  0
    2.2711    6.9202   11.8733 O   0  0  0  0  0  0
    4.4586    8.3347   12.7602 O   0  0  0  0  0  0
   -0.4330    6.8754   14.9463 H   0  0  0  0  0  0
   -0.2320   15.9647   15.3945 H   0  0  0  0  0  0
    0.1295   12.8207   20.2704 H   0  0  0  0  0  0
    1.8063    7.7937   11.9163 H   0  0  0  0  0  0
    4.3968    8.4730   11.7814 H   0  0  0  0  0  0
  1  2  1  0  0  0
  1  3  1  0  0  0
  3  4  1  0  0  0
  4  5  1  0  0  0
  5  6  1  0  0  0
  6  7  2  0  0  0
  7  8  1  0  0  0
  8  9  2  0  0  0
  8 10  1  0  0  0
 10 11  2  0  0  0
 11 12  1  0  0  0
  4 13  1  0  0  0
 13 14  1  0  0  0
 14 15  1  0  0  0
 15 16  1  0  0  0
 16 17  1  0  0  0
 17 18  2  0  0  0
 17 19  1  0  0  0
 17 20  1  0  0  0
 14  1  1  0  0  0
 11  5  1  0  0  0
  2 21  1  0  0  0
  9 22  1  0  0  0
 12 23  1  0  0  0
 19 24  1  0  0  0
 20 25  1  0  0  0
M  END
>  <CHROM.0>
-57.98556071,-76.15053013,78.62265883,-55.07096623,71.75848567,70.00632086
-63.39098800,-169.10052007,-174.00503157,-178.86910313,-177.60107690,-171.65482205
-7.39565819

>  <CHROM.1>
175.26129946,-69.57882603,-177.78689963,-112.97148372,173.88265670,172.06122335
62.74891266,-148.02494168,1.35172969,9.83213310,15.56760934,0.85252854,-0.94047959
3.11480337

>  <RI>
2.0734e+07

>  <Rbt.Current_Directory>
/extra/banzai2/j5wagner/CELPP/2016_10_17_rdock_implementation/normal_run/tutorialVideo/tutorial_rdock_implementation/full_week_run/4-docking/5wrn/LMCSS_1hvy_docking

>  <Rbt.Executable>
rbdock ($Id: //depot/dev/client3/rdock/2013.1/src/exe/rbdock.cxx#4 $)

>  <Rbt.Library>
libRbt.so (2013.1, Build901 2013/11/27)

>  <Rbt.Parameter_File>
/home/j5wagner/env_00/source/rDock/rDock_2013.1_src//data/scripts/dock.prm

>  <Rbt.Receptor>
/extra/banzai2/j5wagner/CELPP/2016_10_17_rdock_implementation/normal_run/tutorialVideo/tutorial_rdock_implementation/full_week_run/4-docking/5wrn/LMCSS_1hvy_tech_prep/rDockGridGenInput.prm

>  <SCORE>
-39.1691

>  <SCORE.INTER>
-18.5243

>  <SCORE.INTER.CONST>
1

>  <SCORE.INTER.POLAR>
-2.85273

>  <SCORE.INTER.REPUL>
0.0739415

>  <SCORE.INTER.ROT>
4

>  <SCORE.INTER.VDW>
-18.5947

>  <SCORE.INTER.norm>
-0.926213

>  <SCORE.INTRA>
-0.0268063

>  <SCORE.INTRA.DIHEDRAL>
0.356423

>  <SCORE.INTRA.DIHEDRAL.0>
8.98184

>  <SCORE.INTRA.POLAR>
0

>  <SCORE.INTRA.POLAR.0>
0

>  <SCORE.INTRA.REPUL>
0

>  <SCORE.INTRA.REPUL.0>
0

>  <SCORE.INTRA.VDW>
-0.205018

>  <SCORE.INTRA.VDW.0>
-1.60828

>  <SCORE.INTRA.norm>
-0.00134032

>  <SCORE.RESTR>
0

>  <SCORE.RESTR.CAVITY>
0

>  <SCORE.RESTR.norm>
0

>  <SCORE.SYSTEM>
-20.618

>  <SCORE.SYSTEM.CONST>
0

>  <SCORE.SYSTEM.DIHEDRAL>
4.40534

>  <SCORE.SYSTEM.POLAR>
-5.88888

>  <SCORE.SYSTEM.REPUL>
0.0300956

>  <SCORE.SYSTEM.VDW>
-2.94896

>  <SCORE.SYSTEM.norm>
-1.0309

>  <SCORE.heavy>
20

>  <SCORE.norm>
-1.95845

$$$$

  rDOCK(R)          3D
libRbt.so/2013.1/901 2013/11/27
 25 26  0  0  0  0  0  0  0  0999 V2000
   -1.9734   -0.6822   16.1735 C   0  0  0  0  0  0
   -0.6210   -1.0092   15.9593 O   0  0  0  0  0  0
   -2.8422   -1.8971   16.3463 C   0  0  0  0  0  0
   -3.9133   -1.4249   17.3322 C   0  0  0  0  0  0
   -5.2251   -1.2994   16.6555 N   0  0  0  0  0  0
   -5.4740   -0.2308   15.8317 C   0  0  0  0  0  0
   -6.7075   -0.0816   15.2035 C   0  0  0  0  0  0
   -7.6881   -1.0476   15.4192 C   0  0  0  0  0  0
   -8.8540   -0.9527   14.8634 N   0  0  0  0  0  0
   -7.4125   -2.1069   16.2168 N   0  0  0  0  0  0
   -6.2059   -2.2538   16.8250 C   0  0  0  0  0  0
   -6.0070   -3.3972   17.6039 O   0  0  0  0  0  0
   -3.5135   -0.1929   17.9080 O   0  0  0  0  0  0
   -2.2014    0.0800   17.4747 C   0  0  0  0  0  0
   -2.0187    1.5947   17.3031 C   0  0  0  0  0  0
   -2.0937    2.2502   18.5532 O   0  0  0  0  0  0
   -1.7863    3.9199   18.3625 P   0  0  0  0  0  0
   -0.3113    4.1448   18.1128 O   0  0  0  0  0  0
   -2.6906    4.5581   17.0795 O   0  0  0  0  0  0
   -2.2262    4.7182   19.7871 O   0  0  0  0  0  0
   -0.0812   -0.1807   16.0484 H   0  0  0  0  0  0
   -9.1140   -0.1565   14.2377 H   0  0  0  0  0  0
   -6.7538   -3.9593   17.9880 H   0  0  0  0  0  0
   -3.6247    4.2794   17.2549 H   0  0  0  0  0  0
   -1.6355    4.3332   20.4826 H   0  0  0  0  0  0
  1  2  1  0  0  0
  1  3  1  0  0  0
  3  4  1  0  0  0
  4  5  1  0  0  0
  5  6  1  0  0  0
  6  7  2  0  0  0
  7  8  1  0  0  0
  8  9  2  0  0  0
  8 10  1  0  0  0
 10 11  2  0  0  0
 11 12  1  0  0  0
  4 13  1  0  0  0
 13 14  1  0  0  0
 14 15  1  0  0  0
 15 16  1  0  0  0
 16 17  1  0  0  0
 17 18  2  0  0  0
 17 19  1  0  0  0
 17 20  1  0  0  0
 14  1  1  0  0  0
 11  5  1  0  0  0
  2 21  1  0  0  0
  9 22  1  0  0  0
 12 23  1  0  0  0
 19 24  1  0  0  0
 20 25  1  0  0  0
M  END
>  <CHROM.0>
-70.88437970,-75.42247458,77.64485669,-54.08843232,-66.66780043,-48.21224716
-60.28182599,-159.26062619,-174.78875999,-176.43651923,-65.45801934,5.26222461
175.68440517

>  <CHROM.1>
-168.02062612,-76.02768481,160.01945650,-173.62923483,176.26562532,-73.83957006
51.72465923,61.87297200,-3.76330312,0.54525832,17.09341557,-0.83938362,0.19373937
-2.92975231

>  <RI>
2.0734e+07

>  <Rbt.Current_Directory>
/extra/banzai2/j5wagner/CELPP/2016_10_17_rdock_implementation/normal_run/tutorialVideo/tutorial_rdock_implementation/full_week_run/4-docking/5wrn/LMCSS_1hvy_docking

>  <Rbt.Executable>
rbdock ($Id: //depot/dev/client3/rdock/2013.1/src/exe/rbdock.cxx#4 $)

>  <Rbt.Library>
libRbt.so (2013.1, Build901 2013/11/27)

>  <Rbt.Parameter_File>
/home/j5wagner/env_00/source/rDock/rDock_2013.1_src//data/scripts/dock.prm

>  <Rbt.Receptor>
/extra/banzai2/j5wagner/CELPP/2016_10_17_rdock_implementation/normal_run/tutorialVideo/tutorial_rdock_implementation/full_week_run/4-docking/5wrn/LMCSS_1hvy_tech_prep/rDockGridGenInput.prm

>  <SCORE>
-38.9028

>  <SCORE.INTER>
-18.4535

>  <SCORE.INTER.CONST>
1

>  <SCORE.INTER.POLAR>
-2.3109

>  <SCORE.INTER.REPUL>
0.244609

>  <SCORE.INTER.ROT>
4

>  <SCORE.INTER.VDW>
-21.2195

>  <SCORE.INTER.norm>
-0.922676

>  <SCORE.INTRA>
-2.33362

>  <SCORE.INTRA.DIHEDRAL>
-4.65219

>  <SCORE.INTRA.DIHEDRAL.0>
8.98184

>  <SCORE.INTRA.POLAR>
0

>  <SCORE.INTRA.POLAR.0>
0

>  <SCORE.INTRA.REPUL>
0

>  <SCORE.INTRA.REPUL.0>
0

>  <SCORE.INTRA.VDW>
-0.00752628

>  <SCORE.INTRA.VDW.0>
-1.60828

>  <SCORE.INTRA.norm>
-0.116681

>  <SCORE.RESTR>
0

>  <SCORE.RESTR.CAVITY>
0

>  <SCORE.RESTR.norm>
0

>  <SCORE.SYSTEM>
-18.1157

>  <SCORE.SYSTEM.CONST>
0

>  <SCORE.SYSTEM.DIHEDRAL>
4.54294

>  <SCORE.SYSTEM.POLAR>
-5.42203

>  <SCORE.SYSTEM.REPUL>
0.0837927

>  <SCORE.SYSTEM.VDW>
-2.37123

>  <SCORE.SYSTEM.norm>
-0.905786

>  <SCORE.heavy>
20

>  <SCORE.norm>
-1.94514

$$$$

  rDOCK(R)          3D
libRbt.so/2013.1/901 2013/11/27
 25 26  0  0  0  0  0  0  0  0999 V2000
   -1.3555    6.4396   17.1888 C   0  0  0  0  0  0
   -1.8827    7.6199   17.7463 O   0  0  0  0  0  0
   -2.2914    5.2700   17.3184 C   0  0  0  0  0  0
   -2.0120    4.4554   16.0534 C   0  0  0  0  0  0
   -1.3161    3.1919   16.3905 N   0  0  0  0  0  0
    0.0534    3.1610   16.4683 C   0  0  0  0  0  0
    0.7286    1.9794   16.7618 C   0  0  0  0  0  0
   -0.0155    0.8230   16.9866 C   0  0  0  0  0  0
    0.5642   -0.3030   17.2573 N   0  0  0  0  0  0
   -1.3672    0.8816   16.9287 N   0  0  0  0  0  0
   -2.0251    2.0372   16.6474 C   0  0  0  0  0  0
   -3.4224    2.0033   16.6413 O   0  0  0  0  0  0
   -1.2483    5.2358   15.1494 O   0  0  0  0  0  0
   -1.1475    6.5361   15.6810 C   0  0  0  0  0  0
    0.2173    7.1382   15.3178 C   0  0  0  0  0  0
    0.5472    6.8500   13.9738 O   0  0  0  0  0  0
    1.9791    7.6692   13.5297 P   0  0  0  0  0  0
    1.6820    9.1349   13.3018 O   0  0  0  0  0  0
    3.1666    7.5026   14.7269 O   0  0  0  0  0  0
    2.5617    7.0004   12.0898 O   0  0  0  0  0  0
   -2.0054    7.4774   18.7213 H   0  0  0  0  0  0
    1.6036   -0.3990   17.3162 H   0  0  0  0  0  0
   -4.0057    2.7180   16.2290 H   0  0  0  0  0  0
    3.3449    6.5299   14.7837 H   0  0  0  0  0  0
    3.1535    7.6983   11.7109 H   0  0  0  0  0  0
  1  2  1  0  0  0
  1  3  1  0  0  0
  3  4  1  0  0  0
  4  5  1  0  0  0
  5  6  1  0  0  0
  6  7  2  0  0  0
  7  8  1  0  0  0
  8  9  2  0  0  0
  8 10  1  0  0  0
 10 11  2  0  0  0
 11 12  1  0  0  0
  4 13  1  0  0  0
 13 14  1  0  0  0
 14 15  1  0  0  0
 15 16  1  0  0  0
 16 17  1  0  0  0
 17 18  2  0  0  0
 17 19  1  0  0  0
 17 20  1  0  0  0
 14  1  1  0  0  0
 11  5  1  0  0  0
  2 21  1  0  0  0
  9 22  1  0  0  0
 12 23  1  0  0  0
 19 24  1  0  0  0
 20 25  1  0  0  0
M  END
>  <CHROM.0>
62.73031528,179.46975091,66.40455747,-55.26273550,72.37750346,-45.45624076
-59.61975365,-155.59255195,13.56480375,63.18247858,-66.48937171,-1.41490242
61.29461876

>  <CHROM.1>
63.24475529,-87.96232370,16.47568140,162.36537688,173.67515549,-75.76859805
61.59573607,159.26680956,-0.14978417,5.02069134,15.61256205,1.07885926,0.55974048
-0.20455100

>  <RI>
2.0734e+07

>  <Rbt.Current_Directory>
/extra/banzai2/j5wagner/CELPP/2016_10_17_rdock_implementation/normal_run/tutorialVideo/tutorial_rdock_implementation/full_week_run/4-docking/5wrn/LMCSS_1hvy_docking

>  <Rbt.Executable>
rbdock ($Id: //depot/dev/client3/rdock/2013.1/src/exe/rbdock.cxx#4 $)

>  <Rbt.Library>
libRbt.so (2013.1, Build901 2013/11/27)

>  <Rbt.Parameter_File>
/home/j5wagner/env_00/source/rDock/rDock_2013.1_src//data/scripts/dock.prm

>  <Rbt.Receptor>
/extra/banzai2/j5wagner/CELPP/2016_10_17_rdock_implementation/normal_run/tutorialVideo/tutorial_rdock_implementation/full_week_run/4-docking/5wrn/LMCSS_1hvy_tech_prep/rDockGridGenInput.prm

>  <SCORE>
-38.5012

>  <SCORE.INTER>
-19.0542

>  <SCORE.INTER.CONST>
1

>  <SCORE.INTER.POLAR>
-2.97567

>  <SCORE.INTER.REPUL>
0.00248206

>  <SCORE.INTER.ROT>
4

>  <SCORE.INTER.VDW>
-18.3493

>  <SCORE.INTER.norm>
-0.952709

>  <SCORE.INTRA>
-1.7578

>  <SCORE.INTRA.DIHEDRAL>
-3.82579

>  <SCORE.INTRA.DIHEDRAL.0>
8.98184

>  <SCORE.INTRA.POLAR>
0

>  <SCORE.INTRA.POLAR.0>
0

>  <SCORE.INTRA.REPUL>
0

>  <SCORE.INTRA.REPUL.0>
0

>  <SCORE.INTRA.VDW>
0.1551

>  <SCORE.INTRA.VDW.0>
-1.60828

>  <SCORE.INTRA.norm>
-0.0878898

>  <SCORE.RESTR>
0

>  <SCORE.RESTR.CAVITY>
0

>  <SCORE.RESTR.norm>
0

>  <SCORE.SYSTEM>
-17.6893

>  <SCORE.SYSTEM.CONST>
0

>  <SCORE.SYSTEM.DIHEDRAL>
6.56645

>  <SCORE.SYSTEM.POLAR>
-4.83238

>  <SCORE.SYSTEM.REPUL>
0.0540731

>  <SCORE.SYSTEM.VDW>
-4.81275

>  <SCORE.SYSTEM.norm>
-0.884463

>  <SCORE.heavy>
20

>  <SCORE.norm>
-1.92506

$$$$

  rDOCK(R)          3D
libRbt.so/2013.1/901 2013/11/27
 25 26  0  0  0  0  0  0  0  0999 V2000
    1.5384    7.9429   16.8684 C   0  0  0  0  0  0
    1.0896    8.0060   18.2013 O   0  0  0  0  0  0
    2.9540    7.4487   16.7572 C   0  0  0  0  0  0
    2.9548    6.6820   15.4328 C   0  0  0  0  0  0
    3.7431    7.4089   14.4107 N   0  0  0  0  0  0
    3.6009    8.7663   14.2702 C   0  0  0  0  0  0
    4.3153    9.4658   13.3013 C   0  0  0  0  0  0
    5.1905    8.7607   12.4778 C   0  0  0  0  0  0
    5.8740    9.3629   11.5572 N   0  0  0  0  0  0
    5.3335    7.4250   12.6500 N   0  0  0  0  0  0
    4.6393    6.7445   13.6000 C   0  0  0  0  0  0
    4.8791    5.3728   13.7207 O   0  0  0  0  0  0
    1.6189    6.4819   15.0032 O   0  0  0  0  0  0
    0.7644    6.9325   16.0281 C   0  0  0  0  0  0
   -0.5060    7.5368   15.4131 C   0  0  0  0  0  0
   -1.0769    6.6471   14.4746 O   0  0  0  0  0  0
   -1.6886    5.2644   15.2699 P   0  0  0  0  0  0
   -2.4070    5.6766   16.5359 O   0  0  0  0  0  0
   -2.7463    4.4061   14.2620 O   0  0  0  0  0  0
   -0.3931    4.2580   15.6809 O   0  0  0  0  0  0
    1.6291    8.6879   18.6808 H   0  0  0  0  0  0
    5.8012   10.3919   11.3871 H   0  0  0  0  0  0
    5.7864    4.9430   13.6064 H   0  0  0  0  0  0
   -3.4455    4.0460   14.8641 H   0  0  0  0  0  0
   -0.4097    3.5381   15.0009 H   0  0  0  0  0  0
  1  2  1  0  0  0
  1  3  1  0  0  0
  3  4  1  0  0  0
  4  5  1  0  0  0
  5  6  1  0  0  0
  6  7  2  0  0  0
  7  8  1  0  0  0
  8  9  2  0  0  0
  8 10  1  0  0  0
 10 11  2  0  0  0
 11 12  1  0  0  0
  4 13  1  0  0  0
 13 14  1  0  0  0
 14 15  1  0  0  0
 15 16  1  0  0  0
 16 17  1  0  0  0
 17 18  2  0  0  0
 17 19  1  0  0  0
 17 20  1  0  0  0
 14  1  1  0  0  0
 11  5  1  0  0  0
  2 21  1  0  0  0
  9 22  1  0  0  0
 12 23  1  0  0  0
 19 24  1  0  0  0
 20 25  1  0  0  0
M  END
>  <CHROM.0>
-58.02885523,179.21206529,67.96630711,-53.78481991,-68.07891335,-166.06694865
-60.36878503,-147.95947581,-176.52986033,65.60511338,178.63272332,-177.44447004
-169.55900934

>  <CHROM.1>
64.92460907,-43.96071994,-142.51451847,170.50279297,67.91053999,42.38227883
-144.76242800,-102.19819353,1.64674163,6.84190313,14.86527070,-3.03644297
-0.49183078,-2.10317612

>  <RI>
2.0734e+07

>  <Rbt.Current_Directory>
/extra/banzai2/j5wagner/CELPP/2016_10_17_rdock_implementation/normal_run/tutorialVideo/tutorial_rdock_implementation/full_week_run/4-docking/5wrn/LMCSS_1hvy_docking

>  <Rbt.Executable>
rbdock ($Id: //depot/dev/client3/rdock/2013.1/src/exe/rbdock.cxx#4 $)

>  <Rbt.Library>
libRbt.so (2013.1, Build901 2013/11/27)

>  <Rbt.Parameter_File>
/home/j5wagner/env_00/source/rDock/rDock_2013.1_src//data/scripts/dock.prm

>  <Rbt.Receptor>
/extra/banzai2/j5wagner/CELPP/2016_10_17_rdock_implementation/normal_run/tutorialVideo/tutorial_rdock_implementation/full_week_run/4-docking/5wrn/LMCSS_1hvy_tech_prep/rDockGridGenInput.prm

>  <SCORE>
-38.2819

>  <SCORE.INTER>
-22.0471

>  <SCORE.INTER.CONST>
1

>  <SCORE.INTER.POLAR>
-3.31718

>  <SCORE.INTER.REPUL>
0.0225951

>  <SCORE.INTER.ROT>
4

>  <SCORE.INTER.VDW>
-20.2817

>  <SCORE.INTER.norm>
-1.10236

>  <SCORE.INTRA>
0.803471

>  <SCORE.INTRA.DIHEDRAL>
-0.167487

>  <SCORE.INTRA.DIHEDRAL.0>
8.98184

>  <SCORE.INTRA.POLAR>
0

>  <SCORE.INTRA.POLAR.0>
0

>  <SCORE.INTRA.REPUL>
0

>  <SCORE.INTRA.REPUL.0>
0

>  <SCORE.INTRA.VDW>
0.887215

>  <SCORE.INTRA.VDW.0>
-1.60828

>  <SCORE.INTRA.norm>
0.0401736

>  <SCORE.RESTR>
0

>  <SCORE.RESTR.CAVITY>
0

>  <SCORE.RESTR.norm>
0

>  <SCORE.SYSTEM>
-17.0383

>  <SCORE.SYSTEM.CONST>
0

>  <SCORE.SYSTEM.DIHEDRAL>
3.00786

>  <SCORE.SYSTEM.POLAR>
-4.34825

>  <SCORE.SYSTEM.VDW>
-3.75814

>  <SCORE.SYSTEM.norm>
-0.851913

>  <SCORE.heavy>
20

>  <SCORE.norm>
-1.9141

$$$$

  rDOCK(R)          3D
libRbt.so/2013.1/901 2013/11/27
 25 26  0  0  0  0  0  0  0  0999 V2000
   -0.4165    2.0639   16.9076 C   0  0  0  0  0  0
    0.3755    0.9116   17.0718 O   0  0  0  0  0  0
    0.3224    3.1815   16.2252 C   0  0  0  0  0  0
   -0.7733    3.8886   15.4242 C   0  0  0  0  0  0
   -1.0686    5.2182   16.0068 N   0  0  0  0  0  0
   -0.7219    6.3586   15.3273 C   0  0  0  0  0  0
   -0.9699    7.6181   15.8664 C   0  0  0  0  0  0
   -1.5895    7.7014   17.1116 C   0  0  0  0  0  0
   -1.8373    8.8483   17.6598 N   0  0  0  0  0  0
   -1.9452    6.5633   17.7537 N   0  0  0  0  0  0
   -1.7072    5.3346   17.2235 C   0  0  0  0  0  0
   -2.1398    4.2205   17.9482 O   0  0  0  0  0  0
   -1.9331    3.0742   15.3913 O   0  0  0  0  0  0
   -1.6091    1.8383   15.9840 C   0  0  0  0  0  0
   -2.8313    1.2886   16.7333 C   0  0  0  0  0  0
   -2.4637    0.1970   17.5527 O   0  0  0  0  0  0
   -3.7778   -0.2667   18.5409 P   0  0  0  0  0  0
   -3.4598    0.0300   19.9899 O   0  0  0  0  0  0
   -5.1932    0.5456   18.0848 O   0  0  0  0  0  0
   -4.0263   -1.9305   18.3667 O   0  0  0  0  0  0
   -0.2114    0.1692   17.3723 H   0  0  0  0  0  0
   -1.5852    9.7544   17.2033 H   0  0  0  0  0  0
   -3.0485    4.1446   18.3837 H   0  0  0  0  0  0
   -5.3781    0.2471   17.1587 H   0  0  0  0  0  0
   -4.1001   -2.0717   17.3893 H   0  0  0  0  0  0
  1  2  1  0  0  0
  1  3  1  0  0  0
  3  4  1  0  0  0
  4  5  1  0  0  0
  5  6  1  0  0  0
  6  7  2  0  0  0
  7  8  1  0  0  0
  8  9  2  0  0  0
  8 10  1  0  0  0
 10 11  2  0  0  0
 11 12  1  0  0  0
  4 13  1  0  0  0
 13 14  1  0  0  0
 14 15  1  0  0  0
 15 16  1  0  0  0
 16 17  1  0  0  0
 17 18  2  0  0  0
 17 19  1  0  0  0
 17 20  1  0  0  0
 14  1  1  0  0  0
 11  5  1  0  0  0
  2 21  1  0  0  0
  9 22  1  0  0  0
 12 23  1  0  0  0
 19 24  1  0  0  0
 20 25  1  0  0  0
M  END
>  <CHROM.0>
-55.27635330,-82.91418558,77.50242612,-55.37411374,72.09522418,74.74950010
-59.74478905,-166.30233517,26.33551419,-68.89719877,-176.96635218,1.62503742
-148.57545201

>  <CHROM.1>
-169.88506893,110.68143264,-134.52609702,-48.46867444,172.17999349,-112.74307419
62.99031624,-52.65242655,-2.06409447,2.95724212,17.19714625,-1.94457406,0.64618870
0.00165286

>  <RI>
2.0734e+07

>  <Rbt.Current_Directory>
/extra/banzai2/j5wagner/CELPP/2016_10_17_rdock_implementation/normal_run/tutorialVideo/tutorial_rdock_implementation/full_week_run/4-docking/5wrn/LMCSS_1hvy_docking

>  <Rbt.Executable>
rbdock ($Id: //depot/dev/client3/rdock/2013.1/src/exe/rbdock.cxx#4 $)

>  <Rbt.Library>
libRbt.so (2013.1, Build901 2013/11/27)

>  <Rbt.Parameter_File>
/home/j5wagner/env_00/source/rDock/rDock_2013.1_src//data/scripts/dock.prm

>  <Rbt.Receptor>
/extra/banzai2/j5wagner/CELPP/2016_10_17_rdock_implementation/normal_run/tutorialVideo/tutorial_rdock_implementation/full_week_run/4-docking/5wrn/LMCSS_1hvy_tech_prep/rDockGridGenInput.prm

>  <SCORE>
-38.0357

>  <SCORE.INTER>
-16.3954

>  <SCORE.INTER.CONST>
1

>  <SCORE.INTER.POLAR>
-3.50816

>  <SCORE.INTER.REPUL>
0.707038

>  <SCORE.INTER.ROT>
4

>  <SCORE.INTER.VDW>
-17.4028

>  <SCORE.INTER.norm>
-0.819769

>  <SCORE.INTRA>
-1.80231

>  <SCORE.INTRA.DIHEDRAL>
-0.46747

>  <SCORE.INTRA.DIHEDRAL.0>
8.98184

>  <SCORE.INTRA.POLAR>
-0.372991

>  <SCORE.INTRA.POLAR.0>
0

>  <SCORE.INTRA.REPUL>
0

>  <SCORE.INTRA.REPUL.0>
0

>  <SCORE.INTRA.VDW>
-0.300411

>  <SCORE.INTRA.VDW.0>
-1.60828

>  <SCORE.INTRA.norm>
-0.0901157

>  <SCORE.RESTR>
0

>  <SCORE.RESTR.CAVITY>
0

>  <SCORE.RESTR.norm>
0

>  <SCORE.SYSTEM>
-19.838

>  <SCORE.SYSTEM.CONST>
0

>  <SCORE.SYSTEM.DIHEDRAL>
8.00947

>  <SCORE.SYSTEM.POLAR>
-6.13787

>  <SCORE.SYSTEM.VDW>
-2.97399

>  <SCORE.SYSTEM.norm>
-0.991901

>  <SCORE.heavy>
20

>  <SCORE.norm>
-1.90179

$$$$

  rDOCK(R)          3D
libRbt.so/2013.1/901 2013/11/27
 25 26  0  0  0  0  0  0  0  0999 V2000
    2.3974    8.3373   15.4672 C   0  0  0  0  0  0
    2.7905    7.0662   15.9274 O   0  0  0  0  0  0
    3.2616    9.4417   16.0093 C   0  0  0  0  0  0
    3.2821   10.4626   14.8694 C   0  0  0  0  0  0
    2.5111   11.6722   15.2395 N   0  0  0  0  0  0
    3.1160   12.9036   15.2262 C   0  0  0  0  0  0
    2.4163   14.0504   15.5918 C   0  0  0  0  0  0
    1.0794   13.9268   15.9643 C   0  0  0  0  0  0
    0.3856   14.9614   16.3187 N   0  0  0  0  0  0
    0.4955   12.7049   15.9468 N   0  0  0  0  0  0
    1.1786   11.5871   15.5844 C   0  0  0  0  0  0
    0.4799   10.3767   15.5680 O   0  0  0  0  0  0
    2.7650    9.8653   13.6924 O   0  0  0  0  0  0
    2.5559    8.4982   13.9589 C   0  0  0  0  0  0
    1.3241    8.0042   13.1870 C   0  0  0  0  0  0
    0.7433    6.8905   13.8357 O   0  0  0  0  0  0
   -0.9460    7.1040   13.9740 P   0  0  0  0  0  0
   -1.5873    5.8217   14.4569 O   0  0  0  0  0  0
   -1.3100    8.3671   15.0432 O   0  0  0  0  0  0
   -1.5707    7.4857   12.4494 O   0  0  0  0  0  0
    2.2156    6.3842   15.4911 H   0  0  0  0  0  0
    0.7895   15.9252   16.3455 H   0  0  0  0  0  0
   -0.5185   10.2959   15.7010 H   0  0  0  0  0  0
   -0.7776    8.1809   15.8575 H   0  0  0  0  0  0
   -0.9951    8.2213   12.1200 H   0  0  0  0  0  0
  1  2  1  0  0  0
  1  3  1  0  0  0
  3  4  1  0  0  0
  4  5  1  0  0  0
  5  6  1  0  0  0
  6  7  2  0  0  0
  7  8  1  0  0  0
  8  9  2  0  0  0
  8 10  1  0  0  0
 10 11  2  0  0  0
 11 12  1  0  0  0
  4 13  1  0  0  0
 13 14  1  0  0  0
 14 15  1  0  0  0
 15 16  1  0  0  0
 16 17  1  0  0  0
 17 18  2  0  0  0
 17 19  1  0  0  0
 17 20  1  0  0  0
 14  1  1  0  0  0
 11  5  1  0  0  0
  2 21  1  0  0  0
  9 22  1  0  0  0
 12 23  1  0  0  0
 19 24  1  0  0  0
 20 25  1  0  0  0
M  END
>  <CHROM.0>
61.61042886,177.60545436,66.72697279,-56.08288378,69.04473840,-170.96592968
-173.76785345,-161.29605288,8.59829494,-65.77968601,62.37920331,-170.97043042
-176.59371849

>  <CHROM.1>
-176.69585119,122.52607624,-171.97669330,-34.49246797,132.27605635,170.69915993
-49.75804713,-49.93655030,1.06309765,9.67392976,14.83138259,-1.89318549,-0.11546675
0.23384385

>  <RI>
2.0734e+07

>  <Rbt.Current_Directory>
/extra/banzai2/j5wagner/CELPP/2016_10_17_rdock_implementation/normal_run/tutorialVideo/tutorial_rdock_implementation/full_week_run/4-docking/5wrn/LMCSS_1hvy_docking

>  <Rbt.Executable>
rbdock ($Id: //depot/dev/client3/rdock/2013.1/src/exe/rbdock.cxx#4 $)

>  <Rbt.Library>
libRbt.so (2013.1, Build901 2013/11/27)

>  <Rbt.Parameter_File>
/home/j5wagner/env_00/source/rDock/rDock_2013.1_src//data/scripts/dock.prm

>  <Rbt.Receptor>
/extra/banzai2/j5wagner/CELPP/2016_10_17_rdock_implementation/normal_run/tutorialVideo/tutorial_rdock_implementation/full_week_run/4-docking/5wrn/LMCSS_1hvy_tech_prep/rDockGridGenInput.prm

>  <SCORE>
-37.777

>  <SCORE.INTER>
-21.7382

>  <SCORE.INTER.CONST>
1

>  <SCORE.INTER.POLAR>
-3.27055

>  <SCORE.INTER.REPUL>
0.0127605

>  <SCORE.INTER.ROT>
4

>  <SCORE.INTER.VDW>
-20.0821

>  <SCORE.INTER.norm>
-1.08691

>  <SCORE.INTRA>
-1.00284

>  <SCORE.INTRA.DIHEDRAL>
2.61315

>  <SCORE.INTRA.DIHEDRAL.0>
8.98184

>  <SCORE.INTRA.POLAR>
-0.527631

>  <SCORE.INTRA.POLAR.0>
0

>  <SCORE.INTRA.REPUL>
0

>  <SCORE.INTRA.REPUL.0>
0

>  <SCORE.INTRA.VDW>
-0.515475

>  <SCORE.INTRA.VDW.0>
-1.60828

>  <SCORE.INTRA.norm>
-0.0501422

>  <SCORE.RESTR>
0

>  <SCORE.RESTR.CAVITY>
0

>  <SCORE.RESTR.norm>
0

>  <SCORE.SYSTEM>
-15.036

>  <SCORE.SYSTEM.CONST>
0

>  <SCORE.SYSTEM.DIHEDRAL>
2.10243

>  <SCORE.SYSTEM.POLAR>
-3.74247

>  <SCORE.SYSTEM.REPUL>
0.0356493

>  <SCORE.SYSTEM.VDW>
-3.54106

>  <SCORE.SYSTEM.norm>
-0.7518

>  <SCORE.heavy>
20

>  <SCORE.norm>
-1.88885

$$$$

  rDOCK(R)          3D
libRbt.so/2013.1/901 2013/11/27
 25 26  0  0  0  0  0  0  0  0999 V2000
   -1.5311    4.3840   15.0393 C   0  0  0  0  0  0
   -2.2249    3.8195   13.9521 O   0  0  0  0  0  0
   -1.5882    5.8864   15.0450 C   0  0  0  0  0  0
   -1.5906    6.2315   16.5359 C   0  0  0  0  0  0
   -0.3067    6.8580   16.9277 N   0  0  0  0  0  0
    0.8805    6.3113   16.5102 C   0  0  0  0  0  0
    2.0989    6.8710   16.8850 C   0  0  0  0  0  0
    2.0921    8.0092   17.6886 C   0  0  0  0  0  0
    3.1979    8.5651   18.0700 N   0  0  0  0  0  0
    0.9085    8.5463   18.0690 N   0  0  0  0  0  0
   -0.2802    8.0018   17.6976 C   0  0  0  0  0  0
   -1.4479    8.6472   18.1145 O   0  0  0  0  0  0
   -1.8398    5.0580   17.2910 O   0  0  0  0  0  0
   -2.1437    4.0207   16.3879 C   0  0  0  0  0  0
   -1.6079    2.6888   16.9321 C   0  0  0  0  0  0
   -2.0947    1.6055   16.1654 O   0  0  0  0  0  0
   -0.9975    0.2977   16.2301 P   0  0  0  0  0  0
    0.1179    0.5138   15.2311 O   0  0  0  0  0  0
   -0.3502    0.1284   17.7869 O   0  0  0  0  0  0
   -1.8227   -1.1226   15.8275 O   0  0  0  0  0  0
   -2.2588    2.8354   14.0799 H   0  0  0  0  0  0
    4.1360    8.1906   17.8005 H   0  0  0  0  0  0
   -2.3782    8.2723   17.9921 H   0  0  0  0  0  0
    0.6320    0.1720   17.6670 H   0  0  0  0  0  0
   -2.0810   -1.0019   14.8790 H   0  0  0  0  0  0
  1  2  1  0  0  0
  1  3  1  0  0  0
  3  4  1  0  0  0
  4  5  1  0  0  0
  5  6  1  0  0  0
  6  7  2  0  0  0
  7  8  1  0  0  0
  8  9  2  0  0  0
  8 10  1  0  0  0
 10 11  2  0  0  0
 11 12  1  0  0  0
  4 13  1  0  0  0
 13 14  1  0  0  0
 14 15  1  0  0  0
 15 16  1  0  0  0
 16 17  1  0  0  0
 17 18  2  0  0  0
 17 19  1  0  0  0
 17 20  1  0  0  0
 14  1  1  0  0  0
 11  5  1  0  0  0
  2 21  1  0  0  0
  9 22  1  0  0  0
 12 23  1  0  0  0
 19 24  1  0  0  0
 20 25  1  0  0  0
M  END
>  <CHROM.0>
-57.21373451,-76.55269638,78.91730751,-56.02589261,71.05569374,-168.17633093
-62.44404588,-164.11712698,5.65476797,63.87051830,-179.50793768,-179.10381365
18.46137070

>  <CHROM.1>
-171.95544241,-45.90393718,8.19376149,-70.23849679,152.63634284,-82.04843042
-124.05546514,65.63701083,-0.60892823,4.35126363,16.57441986,1.85294025,0.41560892
-3.06274496

>  <RI>
2.0734e+07

>  <Rbt.Current_Directory>
/extra/banzai2/j5wagner/CELPP/2016_10_17_rdock_implementation/normal_run/tutorialVideo/tutorial_rdock_implementation/full_week_run/4-docking/5wrn/LMCSS_1hvy_docking

>  <Rbt.Executable>
rbdock ($Id: //depot/dev/client3/rdock/2013.1/src/exe/rbdock.cxx#4 $)

>  <Rbt.Library>
libRbt.so (2013.1, Build901 2013/11/27)

>  <Rbt.Parameter_File>
/home/j5wagner/env_00/source/rDock/rDock_2013.1_src//data/scripts/dock.prm

>  <Rbt.Receptor>
/extra/banzai2/j5wagner/CELPP/2016_10_17_rdock_implementation/normal_run/tutorialVideo/tutorial_rdock_implementation/full_week_run/4-docking/5wrn/LMCSS_1hvy_tech_prep/rDockGridGenInput.prm

>  <SCORE>
-37.3889

>  <SCORE.INTER>
-16.8204

>  <SCORE.INTER.CONST>
1

>  <SCORE.INTER.POLAR>
-4.08498

>  <SCORE.INTER.REPUL>
0.532837

>  <SCORE.INTER.ROT>
4

>  <SCORE.INTER.VDW>
-14.9956

>  <SCORE.INTER.norm>
-0.841019

>  <SCORE.INTRA>
0.2598

>  <SCORE.INTRA.DIHEDRAL>
0.42565

>  <SCORE.INTRA.DIHEDRAL.0>
8.98184

>  <SCORE.INTRA.POLAR>
-0.115734

>  <SCORE.INTRA.POLAR.0>
0

>  <SCORE.INTRA.REPUL>
0

>  <SCORE.INTRA.REPUL.0>
0

>  <SCORE.INTRA.VDW>
0.44047

>  <SCORE.INTRA.VDW.0>
-1.60828

>  <SCORE.INTRA.norm>
0.01299

>  <SCORE.RESTR>
0

>  <SCORE.RESTR.CAVITY>
0

>  <SCORE.RESTR.norm>
0

>  <SCORE.SYSTEM>
-20.8284

>  <SCORE.SYSTEM.CONST>
0

>  <SCORE.SYSTEM.DIHEDRAL>
4.8867

>  <SCORE.SYSTEM.POLAR>
-5.94685

>  <SCORE.SYSTEM.REPUL>
0.00290993

>  <SCORE.SYSTEM.VDW>
-3.06697

>  <SCORE.SYSTEM.norm>
-1.04142

>  <SCORE.heavy>
20

>  <SCORE.norm>
-1.86945

$$$$

  rDOCK(R)          3D
libRbt.so/2013.1/901 2013/11/27
 25 26  0  0  0  0  0  0  0  0999 V2000
   -2.9224    0.2179   18.1112 C   0  0  0  0  0  0
   -4.2402    0.3068   18.5984 O   0  0  0  0  0  0
   -2.4855   -1.2020   17.8797 C   0  0  0  0  0  0
   -1.5458   -1.0881   16.6773 C   0  0  0  0  0  0
   -0.1439   -1.3364   17.0864 N   0  0  0  0  0  0
    0.3289   -2.6214   17.1754 C   0  0  0  0  0  0
    1.6362   -2.8783   17.5794 C   0  0  0  0  0  0
    2.4650   -1.8006   17.8843 C   0  0  0  0  0  0
    3.6873   -1.9854   18.2705 N   0  0  0  0  0  0
    1.9851   -0.5397   17.7663 N   0  0  0  0  0  0
    0.7102   -0.2905   17.3665 C   0  0  0  0  0  0
    0.3178    1.0455   17.2451 O   0  0  0  0  0  0
   -1.6884    0.1928   16.0872 O   0  0  0  0  0  0
   -2.7548    0.8485   16.7327 C   0  0  0  0  0  0
   -2.4637    2.3539   16.8114 C   0  0  0  0  0  0
   -2.0082    2.8390   15.5643 O   0  0  0  0  0  0
   -2.0304    4.5472   15.5527 P   0  0  0  0  0  0
   -2.0433    5.0505   14.1260 O   0  0  0  0  0  0
   -3.3830    5.1397   16.3837 O   0  0  0  0  0  0
   -0.6321    5.1126   16.3178 O   0  0  0  0  0  0
   -4.8586    0.0001   17.8847 H   0  0  0  0  0  0
    4.1049   -2.9382   18.3741 H   0  0  0  0  0  0
    0.9496    1.8058   17.0357 H   0  0  0  0  0  0
   -4.1562    4.6485   16.0069 H   0  0  0  0  0  0
    0.1025    4.5774   15.9244 H   0  0  0  0  0  0
  1  2  1  0  0  0
  1  3  1  0  0  0
  3  4  1  0  0  0
  4  5  1  0  0  0
  5  6  1  0  0  0
  6  7  2  0  0  0
  7  8  1  0  0  0
  8  9  2  0  0  0
  8 10  1  0  0  0
 10 11  2  0  0  0
 11 12  1  0  0  0
  4 13  1  0  0  0
 13 14  1  0  0  0
 14 15  1  0  0  0
 15 16  1  0  0  0
 16 17  1  0  0  0
 17 18  2  0  0  0
 17 19  1  0  0  0
 17 20  1  0  0  0
 14  1  1  0  0  0
 11  5  1  0  0  0
  2 21  1  0  0  0
  9 22  1  0  0  0
 12 23  1  0  0  0
 19 24  1  0  0  0
 20 25  1  0  0  0
M  END
>  <CHROM.0>
-175.73313053,-76.81292373,177.88750135,-55.38601115,71.60421442,71.43884580
-61.22597331,-162.83620304,10.81536179,-168.09533032,-64.80129880,4.33093930
-157.00857786

>  <CHROM.1>
-66.97991083,83.96679220,-151.69730881,166.24579073,167.04345107,-159.37149816
-50.19567596,46.71774227,-1.00230876,1.07115139,16.84254635,1.05253703,-0.08232241
2.79065936

>  <RI>
2.0734e+07

>  <Rbt.Current_Directory>
/extra/banzai2/j5wagner/CELPP/2016_10_17_rdock_implementation/normal_run/tutorialVideo/tutorial_rdock_implementation/full_week_run/4-docking/5wrn/LMCSS_1hvy_docking

>  <Rbt.Executable>
rbdock ($Id: //depot/dev/client3/rdock/2013.1/src/exe/rbdock.cxx#4 $)

>  <Rbt.Library>
libRbt.so (2013.1, Build901 2013/11/27)

>  <Rbt.Parameter_File>
/home/j5wagner/env_00/source/rDock/rDock_2013.1_src//data/scripts/dock.prm

>  <Rbt.Receptor>
/extra/banzai2/j5wagner/CELPP/2016_10_17_rdock_implementation/normal_run/tutorialVideo/tutorial_rdock_implementation/full_week_run/4-docking/5wrn/LMCSS_1hvy_tech_prep/rDockGridGenInput.prm

>  <SCORE>
-36.9869

>  <SCORE.INTER>
-19.0026

>  <SCORE.INTER.CONST>
1

>  <SCORE.INTER.POLAR>
-3.48955

>  <SCORE.INTER.REPUL>
0

>  <SCORE.INTER.ROT>
4

>  <SCORE.INTER.VDW>
-16.5381

>  <SCORE.INTER.norm>
-0.950128

>  <SCORE.INTRA>
-1.04087

>  <SCORE.INTRA.DIHEDRAL>
-2.69869

>  <SCORE.INTRA.DIHEDRAL.0>
8.98184

>  <SCORE.INTRA.POLAR>
0

>  <SCORE.INTRA.POLAR.0>
0

>  <SCORE.INTRA.REPUL>
0

>  <SCORE.INTRA.REPUL.0>
0

>  <SCORE.INTRA.VDW>
0.308474

>  <SCORE.INTRA.VDW.0>
-1.60828

>  <SCORE.INTRA.norm>
-0.0520435

>  <SCORE.RESTR>
0.19843

>  <SCORE.RESTR.CAVITY>
0.19843

>  <SCORE.RESTR.norm>
0.0099215

>  <SCORE.SYSTEM>
-17.1419

>  <SCORE.SYSTEM.CONST>
0

>  <SCORE.SYSTEM.DIHEDRAL>
4.56683

>  <SCORE.SYSTEM.POLAR>
-5.36816

>  <SCORE.SYSTEM.REPUL>
0.0883407

>  <SCORE.SYSTEM.VDW>
-1.61529

>  <SCORE.SYSTEM.norm>
-0.857095

>  <SCORE.heavy>
20

>  <SCORE.norm>
-1.84935

$$$$

  rDOCK(R)          3D
libRbt.so/2013.1/901 2013/11/27
 25 26  0  0  0  0  0  0  0  0999 V2000
   -0.7591    9.6052   17.0406 C   0  0  0  0  0  0
   -1.3047    8.4587   17.6488 O   0  0  0  0  0  0
   -0.4179   10.6806   18.0344 C   0  0  0  0  0  0
    0.8122   11.3505   17.4177 C   0  0  0  0  0  0
    0.4779   12.7108   16.9360 N   0  0  0  0  0  0
   -0.2273   12.8732   15.7703 C   0  0  0  0  0  0
   -0.5328   14.1430   15.2878 C   0  0  0  0  0  0
   -0.1160   15.2534   16.0189 C   0  0  0  0  0  0
   -0.3694   16.4562   15.6109 N   0  0  0  0  0  0
    0.5577   15.0696   17.1793 N   0  0  0  0  0  0
    0.8503   13.8292   17.6517 C   0  0  0  0  0  0
    1.5220   13.7425   18.8744 O   0  0  0  0  0  0
    1.3112   10.5422   16.3656 O   0  0  0  0  0  0
    0.5812    9.3377   16.3637 C   0  0  0  0  0  0
    0.4167    8.8357   14.9221 C   0  0  0  0  0  0
   -0.3953    7.6792   14.8870 O   0  0  0  0  0  0
   -0.4171    7.0221   13.3102 P   0  0  0  0  0  0
   -1.6065    7.5610   12.5462 O   0  0  0  0  0  0
    1.0140    7.3917   12.4817 O   0  0  0  0  0  0
   -0.5593    5.3408   13.4256 O   0  0  0  0  0  0
   -1.4325    7.7650   16.9500 H   0  0  0  0  0  0
   -0.8884   16.6501   14.7243 H   0  0  0  0  0  0
    1.8161   12.8746   19.3001 H   0  0  0  0  0  0
    1.7297    6.9128   12.9710 H   0  0  0  0  0  0
   -1.4495    5.1922   13.8334 H   0  0  0  0  0  0
  1  2  1  0  0  0
  1  3  1  0  0  0
  3  4  1  0  0  0
  4  5  1  0  0  0
  5  6  1  0  0  0
  6  7  2  0  0  0
  7  8  1  0  0  0
  8  9  2  0  0  0
  8 10  1  0  0  0
 10 11  2  0  0  0
 11 12  1  0  0  0
  4 13  1  0  0  0
 13 14  1  0  0  0
 14 15  1  0  0  0
 15 16  1  0  0  0
 16 17  1  0  0  0
 17 18  2  0  0  0
 17 19  1  0  0  0
 17 20  1  0  0  0
 14  1  1  0  0  0
 11  5  1  0  0  0
  2 21  1  0  0  0
  9 22  1  0  0  0
 12 23  1  0  0  0
 19 24  1  0  0  0
 20 25  1  0  0  0
M  END
>  <CHROM.0>
-178.41540876,-76.14169318,79.15618804,-55.38897586,179.22911551,-48.09175338
-62.23382125,-166.07967559,6.41566437,-179.74835724,-67.25479927,-176.51478037
3.34264594

>  <CHROM.1>
-175.19656545,-76.06141244,2.73381993,-55.98894572,-173.18074102,-93.62103535
65.54800833,64.68625885,0.00993394,10.50616125,15.68832863,-2.26284052,-1.42505481
-0.26520871

>  <RI>
2.0734e+07

>  <Rbt.Current_Directory>
/extra/banzai2/j5wagner/CELPP/2016_10_17_rdock_implementation/normal_run/tutorialVideo/tutorial_rdock_implementation/full_week_run/4-docking/5wrn/LMCSS_1hvy_docking

>  <Rbt.Executable>
rbdock ($Id: //depot/dev/client3/rdock/2013.1/src/exe/rbdock.cxx#4 $)

>  <Rbt.Library>
libRbt.so (2013.1, Build901 2013/11/27)

>  <Rbt.Parameter_File>
/home/j5wagner/env_00/source/rDock/rDock_2013.1_src//data/scripts/dock.prm

>  <Rbt.Receptor>
/extra/banzai2/j5wagner/CELPP/2016_10_17_rdock_implementation/normal_run/tutorialVideo/tutorial_rdock_implementation/full_week_run/4-docking/5wrn/LMCSS_1hvy_tech_prep/rDockGridGenInput.prm

>  <SCORE>
-36.8643

>  <SCORE.INTER>
-14.5785

>  <SCORE.INTER.CONST>
1

>  <SCORE.INTER.POLAR>
-0.91368

>  <SCORE.INTER.REPUL>
0.0336733

>  <SCORE.INTER.ROT>
4

>  <SCORE.INTER.VDW>
-21.0404

>  <SCORE.INTER.norm>
-0.728926

>  <SCORE.INTRA>
-3.22155

>  <SCORE.INTRA.DIHEDRAL>
-4.59844

>  <SCORE.INTRA.DIHEDRAL.0>
8.98184

>  <SCORE.INTRA.POLAR>
-0.28814

>  <SCORE.INTRA.POLAR.0>
0

>  <SCORE.INTRA.REPUL>
0

>  <SCORE.INTRA.REPUL.0>
0

>  <SCORE.INTRA.VDW>
0.05735

>  <SCORE.INTRA.VDW.0>
-1.60828

>  <SCORE.INTRA.norm>
-0.161077

>  <SCORE.RESTR>
0

>  <SCORE.RESTR.CAVITY>
0

>  <SCORE.RESTR.norm>
0

>  <SCORE.SYSTEM>
-19.0642

>  <SCORE.SYSTEM.CONST>
0

>  <SCORE.SYSTEM.DIHEDRAL>
4.02231

>  <SCORE.SYSTEM.POLAR>
-5.4795

>  <SCORE.SYSTEM.REPUL>
0.0826459

>  <SCORE.SYSTEM.VDW>
-2.85827

>  <SCORE.SYSTEM.norm>
-0.95321

>  <SCORE.heavy>
20

>  <SCORE.norm>
-1.84321

$$$$

  rDOCK(R)          3D
libRbt.so/2013.1/901 2013/11/27
 25 26  0  0  0  0  0  0  0  0999 V2000
   -1.4980    5.0055   16.4066 C   0  0  0  0  0  0
   -1.6673    6.3071   16.9156 O   0  0  0  0  0  0
   -2.1509    3.9586   17.2659 C   0  0  0  0  0  0
   -2.5990    2.9028   16.2527 C   0  0  0  0  0  0
   -1.7838    1.6732   16.3867 N   0  0  0  0  0  0
   -2.2443    0.6218   17.1384 C   0  0  0  0  0  0
   -1.4847   -0.5343   17.2958 C   0  0  0  0  0  0
   -0.2448   -0.6099   16.6647 C   0  0  0  0  0  0
    0.5033   -1.6603   16.7840 N   0  0  0  0  0  0
    0.1794    0.4299   15.9077 N   0  0  0  0  0  0
   -0.5659    1.5556   15.7506 C   0  0  0  0  0  0
   -0.0561    2.5611   14.9243 O   0  0  0  0  0  0
   -2.5083    3.4379   14.9431 O   0  0  0  0  0  0
   -2.1784    4.8024   15.0568 C   0  0  0  0  0  0
   -1.2798    5.2160   13.8826 C   0  0  0  0  0  0
   -1.3048    6.6183   13.7061 O   0  0  0  0  0  0
    0.2714    7.2020   13.4004 P   0  0  0  0  0  0
    0.7913    6.6208   12.1040 O   0  0  0  0  0  0
    0.2836    8.8944   13.3177 O   0  0  0  0  0  0
    1.2849    6.7125   14.6628 O   0  0  0  0  0  0
   -1.2120    6.3600   17.7964 H   0  0  0  0  0  0
    0.2193   -2.4894   17.3540 H   0  0  0  0  0  0
   -0.5588    2.9661   14.1469 H   0  0  0  0  0  0
    0.2838    9.2015   14.2593 H   0  0  0  0  0  0
    2.1021    7.2616   14.5551 H   0  0  0  0  0  0
  1  2  1  0  0  0
  1  3  1  0  0  0
  3  4  1  0  0  0
  4  5  1  0  0  0
  5  6  1  0  0  0
  6  7  2  0  0  0
  7  8  1  0  0  0
  8  9  2  0  0  0
  8 10  1  0  0  0
 10 11  2  0  0  0
 11 12  1  0  0  0
  4 13  1  0  0  0
 13 14  1  0  0  0
 14 15  1  0  0  0
 15 16  1  0  0  0
 16 17  1  0  0  0
 17 18  2  0  0  0
 17 19  1  0  0  0
 17 20  1  0  0  0
 14  1  1  0  0  0
 11  5  1  0  0  0
  2 21  1  0  0  0
  9 22  1  0  0  0
 12 23  1  0  0  0
 19 24  1  0  0  0
 20 25  1  0  0  0
M  END
>  <CHROM.0>
63.56725313,-78.32795720,178.72106365,-55.86024575,69.99379152,-45.66519014
-60.88480089,-160.99524799,2.66841554,-69.33982666,63.30624335,-172.02881441
170.78103970

>  <CHROM.1>
63.41767801,96.24260587,-53.29265014,-80.18226335,137.46686011,63.27036608
79.90721067,-165.96381643,-0.79786741,3.96435165,15.25423823,1.42039012,0.65099051
-0.30839612

>  <RI>
2.0734e+07

>  <Rbt.Current_Directory>
/extra/banzai2/j5wagner/CELPP/2016_10_17_rdock_implementation/normal_run/tutorialVideo/tutorial_rdock_implementation/full_week_run/4-docking/5wrn/LMCSS_1hvy_docking

>  <Rbt.Executable>
rbdock ($Id: //depot/dev/client3/rdock/2013.1/src/exe/rbdock.cxx#4 $)

>  <Rbt.Library>
libRbt.so (2013.1, Build901 2013/11/27)

>  <Rbt.Parameter_File>
/home/j5wagner/env_00/source/rDock/rDock_2013.1_src//data/scripts/dock.prm

>  <Rbt.Receptor>
/extra/banzai2/j5wagner/CELPP/2016_10_17_rdock_implementation/normal_run/tutorialVideo/tutorial_rdock_implementation/full_week_run/4-docking/5wrn/LMCSS_1hvy_tech_prep/rDockGridGenInput.prm

>  <SCORE>
-36.7131

>  <SCORE.INTER>
-21.1012

>  <SCORE.INTER.CONST>
1

>  <SCORE.INTER.POLAR>
-3.56262

>  <SCORE.INTER.REPUL>
0

>  <SCORE.INTER.ROT>
4

>  <SCORE.INTER.VDW>
-18.3883

>  <SCORE.INTER.norm>
-1.05506

>  <SCORE.INTRA>
2.39603

>  <SCORE.INTRA.DIHEDRAL>
4.71865

>  <SCORE.INTRA.DIHEDRAL.0>
8.98184

>  <SCORE.INTRA.POLAR>
-0.0618284

>  <SCORE.INTRA.POLAR.0>
0

>  <SCORE.INTRA.REPUL>
0.00405546

>  <SCORE.INTRA.REPUL.0>
0

>  <SCORE.INTRA.VDW>
0.226641

>  <SCORE.INTRA.VDW.0>
-1.60828

>  <SCORE.INTRA.norm>
0.119801

>  <SCORE.RESTR>
0

>  <SCORE.RESTR.CAVITY>
0

>  <SCORE.RESTR.norm>
0

>  <SCORE.SYSTEM>
-18.0079

>  <SCORE.SYSTEM.CONST>
0

>  <SCORE.SYSTEM.DIHEDRAL>
3.9339

>  <SCORE.SYSTEM.POLAR>
-5.45916

>  <SCORE.SYSTEM.VDW>
-1.41371

>  <SCORE.SYSTEM.norm>
-0.900396

>  <SCORE.heavy>
20

>  <SCORE.norm>
-1.83565

$$$$

  rDOCK(R)          3D
libRbt.so/2013.1/901 2013/11/27
 25 26  0  0  0  0  0  0  0  0999 V2000
   -0.4144    4.5374   18.0127 C   0  0  0  0  0  0
   -0.8930    3.2435   18.2928 O   0  0  0  0  0  0
   -1.2216    5.2367   16.9544 C   0  0  0  0  0  0
   -1.1565    6.7060   17.3773 C   0  0  0  0  0  0
   -0.3219    7.4835   16.4321 N   0  0  0  0  0  0
    0.8411    6.9468   15.9402 C   0  0  0  0  0  0
    1.6516    7.6687   15.0683 C   0  0  0  0  0  0
    1.2541    8.9504   14.6934 C   0  0  0  0  0  0
    1.9749    9.6658   13.8897 N   0  0  0  0  0  0
    0.0902    9.4511   15.1719 N   0  0  0  0  0  0
   -0.7026    8.7428   16.0187 C   0  0  0  0  0  0
   -1.8999    9.3334   16.4329 O   0  0  0  0  0  0
   -0.6517    6.7941   18.6990 O   0  0  0  0  0  0
   -0.5310    5.4844   19.2026 C   0  0  0  0  0  0
    0.6848    5.4001   20.1364 C   0  0  0  0  0  0
    0.5184    4.3592   21.0782 O   0  0  0  0  0  0
    1.8497    4.3137   22.1478 P   0  0  0  0  0  0
    3.0804    3.8272   21.4147 O   0  0  0  0  0  0
    2.1438    5.8446   22.8120 O   0  0  0  0  0  0
    1.5003    3.2351   23.4026 O   0  0  0  0  0  0
   -0.8327    2.7015   17.4630 H   0  0  0  0  0  0
    2.8787    9.3231   13.4915 H   0  0  0  0  0  0
   -2.5125    8.9423   17.1348 H   0  0  0  0  0  0
    2.7888    6.2763   22.1966 H   0  0  0  0  0  0
    2.2078    3.3971   24.0765 H   0  0  0  0  0  0
  1  2  1  0  0  0
  1  3  1  0  0  0
  3  4  1  0  0  0
  4  5  1  0  0  0
  5  6  1  0  0  0
  6  7  2  0  0  0
  7  8  1  0  0  0
  8  9  2  0  0  0
  8 10  1  0  0  0
 10 11  2  0  0  0
 11 12  1  0  0  0
  4 13  1  0  0  0
 13 14  1  0  0  0
 14 15  1  0  0  0
 15 16  1  0  0  0
 16 17  1  0  0  0
 17 18  2  0  0  0
 17 19  1  0  0  0
 17 20  1  0  0  0
 14  1  1  0  0  0
 11  5  1  0  0  0
  2 21  1  0  0  0
  9 22  1  0  0  0
 12 23  1  0  0  0
 19 24  1  0  0  0
 20 25  1  0  0  0
M  END
>  <CHROM.0>
59.23372814,127.80194277,-55.03103671,-53.94105108,-65.79115234,71.30820353
-63.58205787,-162.15039788,174.65938477,-177.69503850,61.82560337,178.32653852
11.49996981

>  <CHROM.1>
61.13484431,-40.64955603,7.42546501,-85.87560904,-177.87186856,-70.22270950
-90.82564754,-168.25797140,0.49227297,6.16217082,18.54152954,1.37373143,0.50125348
2.25027249

>  <RI>
2.0734e+07

>  <Rbt.Current_Directory>
/extra/banzai2/j5wagner/CELPP/2016_10_17_rdock_implementation/normal_run/tutorialVideo/tutorial_rdock_implementation/full_week_run/4-docking/5wrn/LMCSS_1hvy_docking

>  <Rbt.Executable>
rbdock ($Id: //depot/dev/client3/rdock/2013.1/src/exe/rbdock.cxx#4 $)

>  <Rbt.Library>
libRbt.so (2013.1, Build901 2013/11/27)

>  <Rbt.Parameter_File>
/home/j5wagner/env_00/source/rDock/rDock_2013.1_src//data/scripts/dock.prm

>  <Rbt.Receptor>
/extra/banzai2/j5wagner/CELPP/2016_10_17_rdock_implementation/normal_run/tutorialVideo/tutorial_rdock_implementation/full_week_run/4-docking/5wrn/LMCSS_1hvy_tech_prep/rDockGridGenInput.prm

>  <SCORE>
-36.4704

>  <SCORE.INTER>
-19.7483

>  <SCORE.INTER.CONST>
1

>  <SCORE.INTER.POLAR>
-4.19009

>  <SCORE.INTER.REPUL>
0

>  <SCORE.INTER.ROT>
4

>  <SCORE.INTER.VDW>
-14.902

>  <SCORE.INTER.norm>
-0.987417

>  <SCORE.INTRA>
-0.505649

>  <SCORE.INTRA.DIHEDRAL>
-2.80349

>  <SCORE.INTRA.DIHEDRAL.0>
8.98184

>  <SCORE.INTRA.POLAR>
0

>  <SCORE.INTRA.POLAR.0>
0

>  <SCORE.INTRA.REPUL>
0

>  <SCORE.INTRA.REPUL.0>
0

>  <SCORE.INTRA.VDW>
0.896097

>  <SCORE.INTRA.VDW.0>
-1.60828

>  <SCORE.INTRA.norm>
-0.0252825

>  <SCORE.RESTR>
0

>  <SCORE.RESTR.CAVITY>
0

>  <SCORE.RESTR.norm>
0

>  <SCORE.SYSTEM>
-16.2164

>  <SCORE.SYSTEM.CONST>
0

>  <SCORE.SYSTEM.DIHEDRAL>
8.44811

>  <SCORE.SYSTEM.POLAR>
-5.11349

>  <SCORE.SYSTEM.REPUL>
0.0308585

>  <SCORE.SYSTEM.VDW>
-3.20889

>  <SCORE.SYSTEM.norm>
-0.81082

>  <SCORE.heavy>
20

>  <SCORE.norm>
-1.82352

$$$$

  rDOCK(R)          3D
libRbt.so/2013.1/901 2013/11/27
 25 26  0  0  0  0  0  0  0  0999 V2000
    1.6901    8.0365   17.1191 C   0  0  0  0  0  0
    2.8810    8.7783   17.0032 O   0  0  0  0  0  0
    1.4388    7.5609   18.5230 C   0  0  0  0  0  0
   -0.0875    7.5828   18.6328 C   0  0  0  0  0  0
   -0.6255    6.2038   18.6892 N   0  0  0  0  0  0
   -0.4903    5.3686   17.6090 C   0  0  0  0  0  0
   -1.0080    4.0763   17.6324 C   0  0  0  0  0  0
   -1.6614    3.6393   18.7828 C   0  0  0  0  0  0
   -2.1660    2.4486   18.8537 N   0  0  0  0  0  0
   -1.7621    4.4720   19.8461 N   0  0  0  0  0  0
   -1.2513    5.7313   19.8236 C   0  0  0  0  0  0
   -1.3781    6.5036   20.9817 O   0  0  0  0  0  0
   -0.6286    8.2999   17.5362 O   0  0  0  0  0  0
    0.4440    8.8626   16.8176 C   0  0  0  0  0  0
    0.1071    8.8846   15.3198 C   0  0  0  0  0  0
   -0.7990    7.8485   14.9978 O   0  0  0  0  0  0
   -0.5372    7.3131   13.3968 P   0  0  0  0  0  0
   -1.7161    7.6946   12.5290 O   0  0  0  0  0  0
    0.8846    7.9807   12.7612 O   0  0  0  0  0  0
   -0.3894    5.6283   13.4061 O   0  0  0  0  0  0
    3.0100    9.0152   16.0477 H   0  0  0  0  0  0
   -2.1116    1.7683   18.0618 H   0  0  0  0  0  0
   -1.8176    6.1821   21.8329 H   0  0  0  0  0  0
    0.6998    8.1189   11.7980 H   0  0  0  0  0  0
   -0.9448    5.3240   12.6447 H   0  0  0  0  0  0
  1  2  1  0  0  0
  1  3  1  0  0  0
  3  4  1  0  0  0
  4  5  1  0  0  0
  5  6  1  0  0  0
  6  7  2  0  0  0
  7  8  1  0  0  0
  8  9  2  0  0  0
  8 10  1  0  0  0
 10 11  2  0  0  0
 11 12  1  0  0  0
  4 13  1  0  0  0
 13 14  1  0  0  0
 14 15  1  0  0  0
 15 16  1  0  0  0
 16 17  1  0  0  0
 17 18  2  0  0  0
 17 19  1  0  0  0
 17 20  1  0  0  0
 14  1  1  0  0  0
 11  5  1  0  0  0
  2 21  1  0  0  0
  9 22  1  0  0  0
 12 23  1  0  0  0
 19 24  1  0  0  0
 20 25  1  0  0  0
M  END
>  <CHROM.0>
-51.52332403,-78.91730911,81.17047586,-54.70179732,-69.93910449,-47.89942868
-61.91950573,-162.69301925,177.52627559,61.79642436,-177.93819012,-179.72682124
6.78436338

>  <CHROM.1>
176.85373864,-65.22146531,-179.01294753,92.50938697,-149.20071016,-111.83208763
-145.76421243,135.15995702,-0.34532098,6.73706648,16.69530541,-1.23506370
0.97479726,1.73861236

>  <RI>
2.0734e+07

>  <Rbt.Current_Directory>
/extra/banzai2/j5wagner/CELPP/2016_10_17_rdock_implementation/normal_run/tutorialVideo/tutorial_rdock_implementation/full_week_run/4-docking/5wrn/LMCSS_1hvy_docking

>  <Rbt.Executable>
rbdock ($Id: //depot/dev/client3/rdock/2013.1/src/exe/rbdock.cxx#4 $)

>  <Rbt.Library>
libRbt.so (2013.1, Build901 2013/11/27)

>  <Rbt.Parameter_File>
/home/j5wagner/env_00/source/rDock/rDock_2013.1_src//data/scripts/dock.prm

>  <Rbt.Receptor>
/extra/banzai2/j5wagner/CELPP/2016_10_17_rdock_implementation/normal_run/tutorialVideo/tutorial_rdock_implementation/full_week_run/4-docking/5wrn/LMCSS_1hvy_tech_prep/rDockGridGenInput.prm

>  <SCORE>
-35.9449

>  <SCORE.INTER>
-20.1314

>  <SCORE.INTER.CONST>
1

>  <SCORE.INTER.POLAR>
-3.26005

>  <SCORE.INTER.REPUL>
0.0707351

>  <SCORE.INTER.ROT>
4

>  <SCORE.INTER.VDW>
-18.8009

>  <SCORE.INTER.norm>
-1.00657

>  <SCORE.INTRA>
3.06354

>  <SCORE.INTRA.DIHEDRAL>
6.07326

>  <SCORE.INTRA.DIHEDRAL.0>
8.98184

>  <SCORE.INTRA.POLAR>
0

>  <SCORE.INTRA.POLAR.0>
0

>  <SCORE.INTRA.REPUL>
0

>  <SCORE.INTRA.REPUL.0>
0

>  <SCORE.INTRA.VDW>
0.0269031

>  <SCORE.INTRA.VDW.0>
-1.60828

>  <SCORE.INTRA.norm>
0.153177

>  <SCORE.RESTR>
0

>  <SCORE.RESTR.CAVITY>
0

>  <SCORE.RESTR.norm>
0

>  <SCORE.SYSTEM>
-18.877

>  <SCORE.SYSTEM.CONST>
0

>  <SCORE.SYSTEM.DIHEDRAL>
5.31861

>  <SCORE.SYSTEM.POLAR>
-5.60807

>  <SCORE.SYSTEM.REPUL>
0.00334962

>  <SCORE.SYSTEM.VDW>
-2.48564

>  <SCORE.SYSTEM.norm>
-0.943852

>  <SCORE.heavy>
20

>  <SCORE.norm>
-1.79725

$$$$

  rDOCK(R)          3D
libRbt.so/2013.1/901 2013/11/27
 25 26  0  0  0  0  0  0  0  0999 V2000
   -1.1116    4.9643   19.1968 C   0  0  0  0  0  0
   -1.7705    3.9525   19.9207 O   0  0  0  0  0  0
   -0.8913    6.2087   20.0113 C   0  0  0  0  0  0
    0.4332    6.7520   19.4703 C   0  0  0  0  0  0
    0.2093    7.9963   18.6983 N   0  0  0  0  0  0
   -1.0214    8.2517   18.1481 C   0  0  0  0  0  0
   -1.2475    9.4040   17.4001 C   0  0  0  0  0  0
   -0.1983   10.3044   17.2270 C   0  0  0  0  0  0
   -0.3546   11.3881   16.5352 N   0  0  0  0  0  0
    1.0012   10.0442   17.7992 N   0  0  0  0  0  0
    1.2186    8.9214   18.5337 C   0  0  0  0  0  0
    2.4814    8.7577   19.1100 O   0  0  0  0  0  0
    1.0594    5.7603   18.6742 O   0  0  0  0  0  0
    0.3059    4.5760   18.7891 C   0  0  0  0  0  0
    0.3411    3.8103   17.4588 C   0  0  0  0  0  0
   -0.4479    2.6400   17.5366 O   0  0  0  0  0  0
   -0.3373    1.7567   16.0785 P   0  0  0  0  0  0
    1.1015    1.3642   15.8243 O   0  0  0  0  0  0
   -1.3098    0.3703   16.1365 O   0  0  0  0  0  0
   -0.8672    2.7392   14.8081 O   0  0  0  0  0  0
   -1.8330    3.1461   19.3446 H   0  0  0  0  0  0
   -1.2610   11.6351   16.0767 H   0  0  0  0  0  0
    3.2421    9.4147   19.0063 H   0  0  0  0  0  0
   -0.9753   -0.1506   16.9098 H   0  0  0  0  0  0
   -0.3828    3.5938   14.9335 H   0  0  0  0  0  0
  1  2  1  0  0  0
  1  3  1  0  0  0
  3  4  1  0  0  0
  4  5  1  0  0  0
  5  6  1  0  0  0
  6  7  2  0  0  0
  7  8  1  0  0  0
  8  9  2  0  0  0
  8 10  1  0  0  0
 10 11  2  0  0  0
 11 12  1  0  0  0
  4 13  1  0  0  0
 13 14  1  0  0  0
 14 15  1  0  0  0
 15 16  1  0  0  0
 16 17  1  0  0  0
 17 18  2  0  0  0
 17 19  1  0  0  0
 17 20  1  0  0  0
 14  1  1  0  0  0
 11  5  1  0  0  0
  2 21  1  0  0  0
  9 22  1  0  0  0
 12 23  1  0  0  0
 19 24  1  0  0  0
 20 25  1  0  0  0
M  END
>  <CHROM.0>
179.50025211,-80.02818383,79.36702036,-55.26297575,-177.54546887,-47.97373214
-62.37721018,-162.11228878,3.85301895,174.10629424,-65.83666532,-171.63611364
11.56264650

>  <CHROM.1>
-176.58609713,-23.22298097,179.80384281,-58.17464749,-177.13811232,59.94392446
-58.83729345,48.79862120,-0.08325861,5.58989729,17.72722708,2.92559897,-1.47084034
-1.58212205

>  <RI>
2.0734e+07

>  <Rbt.Current_Directory>
/extra/banzai2/j5wagner/CELPP/2016_10_17_rdock_implementation/normal_run/tutorialVideo/tutorial_rdock_implementation/full_week_run/4-docking/5wrn/LMCSS_1hvy_docking

>  <Rbt.Executable>
rbdock ($Id: //depot/dev/client3/rdock/2013.1/src/exe/rbdock.cxx#4 $)

>  <Rbt.Library>
libRbt.so (2013.1, Build901 2013/11/27)

>  <Rbt.Parameter_File>
/home/j5wagner/env_00/source/rDock/rDock_2013.1_src//data/scripts/dock.prm

>  <Rbt.Receptor>
/extra/banzai2/j5wagner/CELPP/2016_10_17_rdock_implementation/normal_run/tutorialVideo/tutorial_rdock_implementation/full_week_run/4-docking/5wrn/LMCSS_1hvy_tech_prep/rDockGridGenInput.prm

>  <SCORE>
-35.8366

>  <SCORE.INTER>
-14.7538

>  <SCORE.INTER.CONST>
1

>  <SCORE.INTER.POLAR>
-2.12328

>  <SCORE.INTER.REPUL>
0.137807

>  <SCORE.INTER.ROT>
4

>  <SCORE.INTER.VDW>
-17.6237

>  <SCORE.INTER.norm>
-0.737691

>  <SCORE.INTRA>
-2.08494

>  <SCORE.INTRA.DIHEDRAL>
-6.26855

>  <SCORE.INTRA.DIHEDRAL.0>
8.98184

>  <SCORE.INTRA.POLAR>
-0.248259

>  <SCORE.INTRA.POLAR.0>
0

>  <SCORE.INTRA.REPUL>
0

>  <SCORE.INTRA.REPUL.0>
0

>  <SCORE.INTRA.VDW>
1.89341

>  <SCORE.INTRA.VDW.0>
-1.60828

>  <SCORE.INTRA.norm>
-0.104247

>  <SCORE.RESTR>
0

>  <SCORE.RESTR.CAVITY>
0

>  <SCORE.RESTR.norm>
0

>  <SCORE.SYSTEM>
-18.9979

>  <SCORE.SYSTEM.CONST>
0

>  <SCORE.SYSTEM.DIHEDRAL>
5.12937

>  <SCORE.SYSTEM.POLAR>
-5.61231

>  <SCORE.SYSTEM.REPUL>
0.0788018

>  <SCORE.SYSTEM.VDW>
-2.87472

>  <SCORE.SYSTEM.norm>
-0.949894

>  <SCORE.heavy>
20

>  <SCORE.norm>
-1.79183

$$$$

  rDOCK(R)          3D
libRbt.so/2013.1/901 2013/11/27
 25 26  0  0  0  0  0  0  0  0999 V2000
   -1.6264    4.8959   16.9813 C   0  0  0  0  0  0
   -1.8386    6.1799   17.5181 O   0  0  0  0  0  0
   -2.1834    3.8049   17.8532 C   0  0  0  0  0  0
   -2.6234    2.7407   16.8452 C   0  0  0  0  0  0
   -1.7404    1.5537   16.9220 N   0  0  0  0  0  0
   -0.5460    1.5408   16.2471 C   0  0  0  0  0  0
    0.2887    0.4272   16.2875 C   0  0  0  0  0  0
   -0.1077   -0.6776   17.0383 C   0  0  0  0  0  0
    0.6293   -1.7406   17.1040 N   0  0  0  0  0  0
   -1.2793   -0.6340   17.7162 N   0  0  0  0  0  0
   -2.0903    0.4561   17.6801 C   0  0  0  0  0  0
   -3.2637    0.4171   18.4385 O   0  0  0  0  0  0
   -2.6219    3.2972   15.5415 O   0  0  0  0  0  0
   -2.3580    4.6755   15.6613 C   0  0  0  0  0  0
   -1.5380    5.1512   14.4536 C   0  0  0  0  0  0
   -0.9801    6.4262   14.7013 O   0  0  0  0  0  0
   -0.5035    7.1565   13.2323 P   0  0  0  0  0  0
    0.2402    6.1534   12.3783 O   0  0  0  0  0  0
   -1.8482    7.7466   12.3867 O   0  0  0  0  0  0
    0.5298    8.4494   13.5799 O   0  0  0  0  0  0
   -1.5069    6.8504   16.8652 H   0  0  0  0  0  0
    1.5425   -1.8219   16.6018 H   0  0  0  0  0  0
   -3.4823   -0.3066   19.1090 H   0  0  0  0  0  0
   -1.4844    8.4140   11.7516 H   0  0  0  0  0  0
    0.6176    8.9374   12.7226 H   0  0  0  0  0  0
  1  2  1  0  0  0
  1  3  1  0  0  0
  3  4  1  0  0  0
  4  5  1  0  0  0
  5  6  1  0  0  0
  6  7  2  0  0  0
  7  8  1  0  0  0
  8  9  2  0  0  0
  8 10  1  0  0  0
 10 11  2  0  0  0
 11 12  1  0  0  0
  4 13  1  0  0  0
 13 14  1  0  0  0
 14 15  1  0  0  0
 15 16  1  0  0  0
 16 17  1  0  0  0
 17 18  2  0  0  0
 17 19  1  0  0  0
 17 20  1  0  0  0
 14  1  1  0  0  0
 11  5  1  0  0  0
  2 21  1  0  0  0
  9 22  1  0  0  0
 12 23  1  0  0  0
 19 24  1  0  0  0
 20 25  1  0  0  0
M  END
>  <CHROM.0>
-177.79398348,178.59498871,67.25211284,-56.82105877,-67.14107700,-47.66530043
64.49847506,-163.16365906,-167.05459836,-77.73748238,62.87693442,5.56058064
-178.58670489

>  <CHROM.1>
-175.98945032,-83.20306986,-170.40140185,-45.64833966,-162.18523514,-45.41026293
160.18929108,-168.70138491,-1.23019366,3.77601057,15.69958352,1.47926896
0.78184813,-0.43876114

>  <RI>
2.0734e+07

>  <Rbt.Current_Directory>
/extra/banzai2/j5wagner/CELPP/2016_10_17_rdock_implementation/normal_run/tutorialVideo/tutorial_rdock_implementation/full_week_run/4-docking/5wrn/LMCSS_1hvy_docking

>  <Rbt.Executable>
rbdock ($Id: //depot/dev/client3/rdock/2013.1/src/exe/rbdock.cxx#4 $)

>  <Rbt.Library>
libRbt.so (2013.1, Build901 2013/11/27)

>  <Rbt.Parameter_File>
/home/j5wagner/env_00/source/rDock/rDock_2013.1_src//data/scripts/dock.prm

>  <Rbt.Receptor>
/extra/banzai2/j5wagner/CELPP/2016_10_17_rdock_implementation/normal_run/tutorialVideo/tutorial_rdock_implementation/full_week_run/4-docking/5wrn/LMCSS_1hvy_tech_prep/rDockGridGenInput.prm

>  <SCORE>
-35.6824

>  <SCORE.INTER>
-21.1152

>  <SCORE.INTER.CONST>
1

>  <SCORE.INTER.POLAR>
-2.98107

>  <SCORE.INTER.REPUL>
0.00414662

>  <SCORE.INTER.ROT>
4

>  <SCORE.INTER.VDW>
-20.4003

>  <SCORE.INTER.norm>
-1.05576

>  <SCORE.INTRA>
-2.40544

>  <SCORE.INTRA.DIHEDRAL>
-2.95791

>  <SCORE.INTRA.DIHEDRAL.0>
8.98184

>  <SCORE.INTRA.POLAR>
-0.337648

>  <SCORE.INTRA.POLAR.0>
0

>  <SCORE.INTRA.REPUL>
0

>  <SCORE.INTRA.REPUL.0>
0

>  <SCORE.INTRA.VDW>
0.221518

>  <SCORE.INTRA.VDW.0>
-1.60828

>  <SCORE.INTRA.norm>
-0.120272

>  <SCORE.RESTR>
0

>  <SCORE.RESTR.CAVITY>
0

>  <SCORE.RESTR.norm>
0

>  <SCORE.SYSTEM>
-12.1617

>  <SCORE.SYSTEM.CONST>
0

>  <SCORE.SYSTEM.DIHEDRAL>
3.28978

>  <SCORE.SYSTEM.POLAR>
-3.35664

>  <SCORE.SYSTEM.REPUL>
0.0743137

>  <SCORE.SYSTEM.VDW>
-2.76561

>  <SCORE.SYSTEM.norm>
-0.608086

>  <SCORE.heavy>
20

>  <SCORE.norm>
-1.78412

$$$$

  rDOCK(R)          3D
libRbt.so/2013.1/901 2013/11/27
 25 26  0  0  0  0  0  0  0  0999 V2000
    0.3469    7.0935   18.2554 C   0  0  0  0  0  0
    0.3837    8.2833   17.5038 O   0  0  0  0  0  0
    1.0405    7.2258   19.5828 C   0  0  0  0  0  0
    0.2299    6.3028   20.4956 C   0  0  0  0  0  0
    1.0202    5.1033   20.8578 N   0  0  0  0  0  0
    1.8073    4.4889   19.9168 C   0  0  0  0  0  0
    2.5408    3.3476   20.2297 C   0  0  0  0  0  0
    2.4693    2.8424   21.5262 C   0  0  0  0  0  0
    3.1273    1.7803   21.8672 N   0  0  0  0  0  0
    1.7052    3.4788   22.4456 N   0  0  0  0  0  0
    0.9941    4.5960   22.1398 C   0  0  0  0  0  0
    0.2602    5.1988   23.1654 O   0  0  0  0  0  0
   -0.9794    5.9439   19.8489 O   0  0  0  0  0  0
   -1.0676    6.6874   18.6560 C   0  0  0  0  0  0
   -1.7619    5.8478   17.5743 C   0  0  0  0  0  0
   -0.8724    4.8864   17.0426 O   0  0  0  0  0  0
   -1.6404    3.9937   15.8050 P   0  0  0  0  0  0
   -0.7014    2.9292   15.2818 O   0  0  0  0  0  0
   -3.0652    3.2744   16.3739 O   0  0  0  0  0  0
   -2.0308    5.0462   14.5400 O   0  0  0  0  0  0
   -0.0282    9.0073   18.0443 H   0  0  0  0  0  0
    3.7326    1.2557   21.1954 H   0  0  0  0  0  0
   -0.6296    5.6588   23.0318 H   0  0  0  0  0  0
   -3.6862    3.2800   15.6022 H   0  0  0  0  0  0
   -2.4633    4.4707   13.8598 H   0  0  0  0  0  0
  1  2  1  0  0  0
  1  3  1  0  0  0
  3  4  1  0  0  0
  4  5  1  0  0  0
  5  6  1  0  0  0
  6  7  2  0  0  0
  7  8  1  0  0  0
  8  9  2  0  0  0
  8 10  1  0  0  0
 10 11  2  0  0  0
 11 12  1  0  0  0
  4 13  1  0  0  0
 13 14  1  0  0  0
 14 15  1  0  0  0
 15 16  1  0  0  0
 16 17  1  0  0  0
 17 18  2  0  0  0
 17 19  1  0  0  0
 17 20  1  0  0  0
 14  1  1  0  0  0
 11  5  1  0  0  0
  2 21  1  0  0  0
  9 22  1  0  0  0
 12 23  1  0  0  0
 19 24  1  0  0  0
 20 25  1  0  0  0
M  END
>  <CHROM.0>
-55.63432710,179.33047790,69.71739024,-55.97371965,-177.59808657,-166.94717349
-60.41338610,-165.16859277,7.44753687,64.50233432,66.03721055,-168.11991097
-4.68053780

>  <CHROM.1>
-57.20258827,-40.19145717,34.99900240,42.79911853,-178.13546979,-177.63356346
146.25502881,179.64653250,-0.00753422,4.87595740,18.84950725,2.93056396,1.03982681
-2.80519345

>  <RI>
2.0734e+07

>  <Rbt.Current_Directory>
/extra/banzai2/j5wagner/CELPP/2016_10_17_rdock_implementation/normal_run/tutorialVideo/tutorial_rdock_implementation/full_week_run/4-docking/5wrn/LMCSS_1hvy_docking

>  <Rbt.Executable>
rbdock ($Id: //depot/dev/client3/rdock/2013.1/src/exe/rbdock.cxx#4 $)

>  <Rbt.Library>
libRbt.so (2013.1, Build901 2013/11/27)

>  <Rbt.Parameter_File>
/home/j5wagner/env_00/source/rDock/rDock_2013.1_src//data/scripts/dock.prm

>  <Rbt.Receptor>
/extra/banzai2/j5wagner/CELPP/2016_10_17_rdock_implementation/normal_run/tutorialVideo/tutorial_rdock_implementation/full_week_run/4-docking/5wrn/LMCSS_1hvy_tech_prep/rDockGridGenInput.prm

>  <SCORE>
-35.662

>  <SCORE.INTER>
-17.5958

>  <SCORE.INTER.CONST>
1

>  <SCORE.INTER.POLAR>
-3.24484

>  <SCORE.INTER.REPUL>
0.0143416

>  <SCORE.INTER.ROT>
4

>  <SCORE.INTER.VDW>
-16.0351

>  <SCORE.INTER.norm>
-0.87979

>  <SCORE.INTRA>
-0.255267

>  <SCORE.INTRA.DIHEDRAL>
-2.5431

>  <SCORE.INTRA.DIHEDRAL.0>
8.98184

>  <SCORE.INTRA.POLAR>
0

>  <SCORE.INTRA.POLAR.0>
0

>  <SCORE.INTRA.REPUL>
0

>  <SCORE.INTRA.REPUL.0>
0

>  <SCORE.INTRA.VDW>
1.01628

>  <SCORE.INTRA.VDW.0>
-1.60828

>  <SCORE.INTRA.norm>
-0.0127633

>  <SCORE.RESTR>
0

>  <SCORE.RESTR.CAVITY>
0

>  <SCORE.RESTR.norm>
0

>  <SCORE.SYSTEM>
-17.811

>  <SCORE.SYSTEM.CONST>
0

>  <SCORE.SYSTEM.DIHEDRAL>
2.01521

>  <SCORE.SYSTEM.POLAR>
-4.3525

>  <SCORE.SYSTEM.REPUL>
0.00335374

>  <SCORE.SYSTEM.VDW>
-4.03682

>  <SCORE.SYSTEM.norm>
-0.890548

>  <SCORE.heavy>
20

>  <SCORE.norm>
-1.7831

$$$$

  rDOCK(R)          3D
libRbt.so/2013.1/901 2013/11/27
 25 26  0  0  0  0  0  0  0  0999 V2000
   -2.0990    4.1566   16.5052 C   0  0  0  0  0  0
   -3.0627    3.1486   16.3121 O   0  0  0  0  0  0
   -2.6649    5.3773   17.1761 C   0  0  0  0  0  0
   -1.4910    5.8949   18.0104 C   0  0  0  0  0  0
   -0.9684    7.1606   17.4453 N   0  0  0  0  0  0
   -1.4238    8.3648   17.9197 C   0  0  0  0  0  0
   -0.9627    9.5660   17.3876 C   0  0  0  0  0  0
   -0.0171    9.5242   16.3652 C   0  0  0  0  0  0
    0.4397   10.6125   15.8320 N   0  0  0  0  0  0
    0.4366    8.3251   15.9289 N   0  0  0  0  0  0
   -0.0106    7.1535   16.4532 C   0  0  0  0  0  0
    0.5412    5.9686   15.9580 O   0  0  0  0  0  0
   -0.4799    4.9030   18.0677 O   0  0  0  0  0  0
   -0.9841    3.7378   17.4579 C   0  0  0  0  0  0
    0.1525    2.9992   16.7368 C   0  0  0  0  0  0
    0.5541    1.8619   17.4741 O   0  0  0  0  0  0
   -0.2093    0.4621   16.8607 P   0  0  0  0  0  0
    0.1296    0.2929   15.3961 O   0  0  0  0  0  0
    0.2693   -0.9149   17.7245 O   0  0  0  0  0  0
   -1.8834    0.6458   17.0156 O   0  0  0  0  0  0
   -3.7046    3.4581   15.6207 H   0  0  0  0  0  0
    0.1235   11.5616   16.1358 H   0  0  0  0  0  0
    1.0073    5.2775   16.5292 H   0  0  0  0  0  0
   -0.1661   -1.6760   17.2639 H   0  0  0  0  0  0
   -2.0164    0.9539   17.9474 H   0  0  0  0  0  0
  1  2  1  0  0  0
  1  3  1  0  0  0
  3  4  1  0  0  0
  4  5  1  0  0  0
  5  6  1  0  0  0
  6  7  2  0  0  0
  7  8  1  0  0  0
  8  9  2  0  0  0
  8 10  1  0  0  0
 10 11  2  0  0  0
 11 12  1  0  0  0
  4 13  1  0  0  0
 13 14  1  0  0  0
 14 15  1  0  0  0
 15 16  1  0  0  0
 16 17  1  0  0  0
 17 18  2  0  0  0
 17 19  1  0  0  0
 17 20  1  0  0  0
 14  1  1  0  0  0
 11  5  1  0  0  0
  2 21  1  0  0  0
  9 22  1  0  0  0
 12 23  1  0  0  0
 19 24  1  0  0  0
 20 25  1  0  0  0
M  END
>  <CHROM.0>
-176.75911103,-82.38764526,78.91414194,-58.61369953,-67.65006735,69.54723280
-60.18383185,-161.36242825,11.16655008,65.81495549,62.77702889,-7.31997092
-34.23012285

>  <CHROM.1>
69.49249374,93.86066453,-56.87993322,-135.79234874,97.22274237,57.96887788
-176.07194612,-47.96070074,-0.65647771,4.50796392,16.89093899,1.57847609
-0.27681939,3.12255539

>  <RI>
2.0734e+07

>  <Rbt.Current_Directory>
/extra/banzai2/j5wagner/CELPP/2016_10_17_rdock_implementation/normal_run/tutorialVideo/tutorial_rdock_implementation/full_week_run/4-docking/5wrn/LMCSS_1hvy_docking

>  <Rbt.Executable>
rbdock ($Id: //depot/dev/client3/rdock/2013.1/src/exe/rbdock.cxx#4 $)

>  <Rbt.Library>
libRbt.so (2013.1, Build901 2013/11/27)

>  <Rbt.Parameter_File>
/home/j5wagner/env_00/source/rDock/rDock_2013.1_src//data/scripts/dock.prm

>  <Rbt.Receptor>
/extra/banzai2/j5wagner/CELPP/2016_10_17_rdock_implementation/normal_run/tutorialVideo/tutorial_rdock_implementation/full_week_run/4-docking/5wrn/LMCSS_1hvy_tech_prep/rDockGridGenInput.prm

>  <SCORE>
-35.6479

>  <SCORE.INTER>
-20.2973

>  <SCORE.INTER.CONST>
1

>  <SCORE.INTER.POLAR>
-4.17318

>  <SCORE.INTER.REPUL>
0.0613267

>  <SCORE.INTER.ROT>
4

>  <SCORE.INTER.VDW>
-15.8151

>  <SCORE.INTER.norm>
-1.01486

>  <SCORE.INTRA>
3.00782

>  <SCORE.INTRA.DIHEDRAL>
6.88076

>  <SCORE.INTRA.DIHEDRAL.0>
8.98184

>  <SCORE.INTRA.POLAR>
-0.0243168

>  <SCORE.INTRA.POLAR.0>
0

>  <SCORE.INTRA.REPUL>
0

>  <SCORE.INTRA.REPUL.0>
0

>  <SCORE.INTRA.VDW>
-0.349879

>  <SCORE.INTRA.VDW.0>
-1.60828

>  <SCORE.INTRA.norm>
0.150391

>  <SCORE.RESTR>
0

>  <SCORE.RESTR.CAVITY>
0

>  <SCORE.RESTR.norm>
0

>  <SCORE.SYSTEM>
-18.3585

>  <SCORE.SYSTEM.CONST>
0

>  <SCORE.SYSTEM.DIHEDRAL>
7.0118

>  <SCORE.SYSTEM.POLAR>
-5.62369

>  <SCORE.SYSTEM.REPUL>
0.0015578

>  <SCORE.SYSTEM.VDW>
-2.75164

>  <SCORE.SYSTEM.norm>
-0.917924

>  <SCORE.heavy>
20

>  <SCORE.norm>
-1.7824

$$$$

  rDOCK(R)          3D
libRbt.so/2013.1/901 2013/11/27
 25 26  0  0  0  0  0  0  0  0999 V2000
    3.2522    8.2300   14.6286 C   0  0  0  0  0  0
    4.2386    7.2878   14.2803 O   0  0  0  0  0  0
    3.8269    9.5881   14.9214 C   0  0  0  0  0  0
    2.7310   10.5432   14.4429 C   0  0  0  0  0  0
    2.0818   11.2102   15.5952 N   0  0  0  0  0  0
    1.3400   10.4759   16.4859 C   0  0  0  0  0  0
    0.7030   11.0859   17.5632 C   0  0  0  0  0  0
    0.8407   12.4626   17.7283 C   0  0  0  0  0  0
    0.2639   13.0793   18.7102 N   0  0  0  0  0  0
    1.5975   13.1641   16.8512 N   0  0  0  0  0  0
    2.2231   12.5661   15.8031 C   0  0  0  0  0  0
    3.0072   13.3703   14.9711 O   0  0  0  0  0  0
    1.7863    9.8256   13.6669 O   0  0  0  0  0  0
    2.2773    8.5173   13.4914 C   0  0  0  0  0  0
    1.1056    7.5255   13.4631 C   0  0  0  0  0  0
    0.4853    7.4509   14.7311 O   0  0  0  0  0  0
   -0.9746    6.5705   14.6222 P   0  0  0  0  0  0
   -1.8864    7.2134   13.6004 O   0  0  0  0  0  0
   -0.6775    4.9582   14.1939 O   0  0  0  0  0  0
   -1.7391    6.5999   16.1304 O   0  0  0  0  0  0
    3.7942    6.4142   14.1215 H   0  0  0  0  0  0
   -0.3274   12.5823   19.4147 H   0  0  0  0  0  0
    3.1984   14.3476   15.1425 H   0  0  0  0  0  0
   -0.8117    4.9200   13.2133 H   0  0  0  0  0  0
   -1.7960    7.5607   16.3637 H   0  0  0  0  0  0
  1  2  1  0  0  0
  1  3  1  0  0  0
  3  4  1  0  0  0
  4  5  1  0  0  0
  5  6  1  0  0  0
  6  7  2  0  0  0
  7  8  1  0  0  0
  8  9  2  0  0  0
  8 10  1  0  0  0
 10 11  2  0  0  0
 11 12  1  0  0  0
  4 13  1  0  0  0
 13 14  1  0  0  0
 14 15  1  0  0  0
 15 16  1  0  0  0
 16 17  1  0  0  0
 17 18  2  0  0  0
 17 19  1  0  0  0
 17 20  1  0  0  0
 14  1  1  0  0  0
 11  5  1  0  0  0
  2 21  1  0  0  0
  9 22  1  0  0  0
 12 23  1  0  0  0
 19 24  1  0  0  0
 20 25  1  0  0  0
M  END
>  <CHROM.0>
-57.73692925,-81.57800363,78.49857010,-56.47955922,68.79572212,-166.76511096
-60.99624826,-161.47967446,-174.33255416,62.65612453,-68.19331557,-0.80717838
0.36173437

>  <CHROM.1>
178.72494686,-66.27907380,-174.26998429,52.07149506,169.86451793,-57.00904543
-96.68862558,53.35376060,1.14807552,9.30416394,15.20748296,-1.95168271,0.44468540
0.51731059

>  <RI>
2.0734e+07

>  <Rbt.Current_Directory>
/extra/banzai2/j5wagner/CELPP/2016_10_17_rdock_implementation/normal_run/tutorialVideo/tutorial_rdock_implementation/full_week_run/4-docking/5wrn/LMCSS_1hvy_docking

>  <Rbt.Executable>
rbdock ($Id: //depot/dev/client3/rdock/2013.1/src/exe/rbdock.cxx#4 $)

>  <Rbt.Library>
libRbt.so (2013.1, Build901 2013/11/27)

>  <Rbt.Parameter_File>
/home/j5wagner/env_00/source/rDock/rDock_2013.1_src//data/scripts/dock.prm

>  <Rbt.Receptor>
/extra/banzai2/j5wagner/CELPP/2016_10_17_rdock_implementation/normal_run/tutorialVideo/tutorial_rdock_implementation/full_week_run/4-docking/5wrn/LMCSS_1hvy_tech_prep/rDockGridGenInput.prm

>  <SCORE>
-35.3842

>  <SCORE.INTER>
-12.6241

>  <SCORE.INTER.CONST>
1

>  <SCORE.INTER.POLAR>
-1.71036

>  <SCORE.INTER.REPUL>
0.00374474

>  <SCORE.INTER.ROT>
4

>  <SCORE.INTER.VDW>
-16.2277

>  <SCORE.INTER.norm>
-0.631207

>  <SCORE.INTRA>
-2.2675

>  <SCORE.INTRA.DIHEDRAL>
-4.07439

>  <SCORE.INTRA.DIHEDRAL.0>
8.98184

>  <SCORE.INTRA.POLAR>
0

>  <SCORE.INTRA.POLAR.0>
0

>  <SCORE.INTRA.REPUL>
0

>  <SCORE.INTRA.REPUL.0>
0

>  <SCORE.INTRA.VDW>
-0.23031

>  <SCORE.INTRA.VDW.0>
-1.60828

>  <SCORE.INTRA.norm>
-0.113375

>  <SCORE.RESTR>
0

>  <SCORE.RESTR.CAVITY>
0

>  <SCORE.RESTR.norm>
0

>  <SCORE.SYSTEM>
-20.4925

>  <SCORE.SYSTEM.CONST>
0

>  <SCORE.SYSTEM.DIHEDRAL>
5.43955

>  <SCORE.SYSTEM.POLAR>
-6.08415

>  <SCORE.SYSTEM.REPUL>
0.0552778

>  <SCORE.SYSTEM.VDW>
-2.80258

>  <SCORE.SYSTEM.norm>
-1.02463

>  <SCORE.heavy>
20

>  <SCORE.norm>
-1.76921

$$$$

  rDOCK(R)          3D
libRbt.so/2013.1/901 2013/11/27
 25 26  0  0  0  0  0  0  0  0999 V2000
   -0.4120    5.5354   18.4777 C   0  0  0  0  0  0
   -0.6818    6.5194   19.4478 O   0  0  0  0  0  0
   -1.4163    4.4166   18.4933 C   0  0  0  0  0  0
   -1.4994    3.9995   17.0232 C   0  0  0  0  0  0
   -0.8843    2.6667   16.8244 N   0  0  0  0  0  0
   -1.6694    1.5415   16.8174 C   0  0  0  0  0  0
   -1.1094    0.2772   16.6544 C   0  0  0  0  0  0
    0.2700    0.1742   16.4874 C   0  0  0  0  0  0
    0.8412   -0.9785   16.3379 N   0  0  0  0  0  0
    1.0230    1.2998   16.4732 N   0  0  0  0  0  0
    0.4740    2.5336   16.6270 C   0  0  0  0  0  0
    1.3303    3.6367   16.5664 O   0  0  0  0  0  0
   -0.8680    4.9808   16.2184 O   0  0  0  0  0  0
   -0.5206    6.0627   17.0507 C   0  0  0  0  0  0
    0.7912    6.6914   16.5598 C   0  0  0  0  0  0
    0.8859    6.6110   15.1517 O   0  0  0  0  0  0
   -0.3592    7.5269   14.4241 P   0  0  0  0  0  0
   -0.9742    8.4588   15.4449 O   0  0  0  0  0  0
    0.2355    8.4214   13.1136 O   0  0  0  0  0  0
   -1.5530    6.4688   13.8624 O   0  0  0  0  0  0
    0.0254    7.2142   19.3933 H   0  0  0  0  0  0
    0.3037   -1.8752   16.3386 H   0  0  0  0  0  0
    1.4505    4.3037   17.3159 H   0  0  0  0  0  0
    0.8530    9.0863   13.5106 H   0  0  0  0  0  0
   -1.7075    5.8434   14.6147 H   0  0  0  0  0  0
  1  2  1  0  0  0
  1  3  1  0  0  0
  3  4  1  0  0  0
  4  5  1  0  0  0
  5  6  1  0  0  0
  6  7  2  0  0  0
  7  8  1  0  0  0
  8  9  2  0  0  0
  8 10  1  0  0  0
 10 11  2  0  0  0
 11 12  1  0  0  0
  4 13  1  0  0  0
 13 14  1  0  0  0
 14 15  1  0  0  0
 15 16  1  0  0  0
 16 17  1  0  0  0
 17 18  2  0  0  0
 17 19  1  0  0  0
 17 20  1  0  0  0
 14  1  1  0  0  0
 11  5  1  0  0  0
  2 21  1  0  0  0
  9 22  1  0  0  0
 12 23  1  0  0  0
 19 24  1  0  0  0
 20 25  1  0  0  0
M  END
>  <CHROM.0>
58.73451089,-84.05999470,77.98999460,-172.92223805,72.51115445,69.55246326
-61.08533588,-164.83144425,-171.24967919,178.51901061,-64.84809091,12.12483472
177.45576283

>  <CHROM.1>
178.94412841,95.90370341,59.77630847,153.34959675,63.74754047,15.37016027
-66.52211979,46.62293679,-0.29344195,4.67565506,16.24346417,1.74148554,1.35668782
-0.43028768

>  <RI>
2.0734e+07

>  <Rbt.Current_Directory>
/extra/banzai2/j5wagner/CELPP/2016_10_17_rdock_implementation/normal_run/tutorialVideo/tutorial_rdock_implementation/full_week_run/4-docking/5wrn/LMCSS_1hvy_docking

>  <Rbt.Executable>
rbdock ($Id: //depot/dev/client3/rdock/2013.1/src/exe/rbdock.cxx#4 $)

>  <Rbt.Library>
libRbt.so (2013.1, Build901 2013/11/27)

>  <Rbt.Parameter_File>
/home/j5wagner/env_00/source/rDock/rDock_2013.1_src//data/scripts/dock.prm

>  <Rbt.Receptor>
/extra/banzai2/j5wagner/CELPP/2016_10_17_rdock_implementation/normal_run/tutorialVideo/tutorial_rdock_implementation/full_week_run/4-docking/5wrn/LMCSS_1hvy_tech_prep/rDockGridGenInput.prm

>  <SCORE>
-34.6656

>  <SCORE.INTER>
-17.766

>  <SCORE.INTER.CONST>
1

>  <SCORE.INTER.POLAR>
-3.05967

>  <SCORE.INTER.REPUL>
0.000493348

>  <SCORE.INTER.ROT>
4

>  <SCORE.INTER.VDW>
-16.7656

>  <SCORE.INTER.norm>
-0.888301

>  <SCORE.INTRA>
-1.7101

>  <SCORE.INTRA.DIHEDRAL>
1.56025

>  <SCORE.INTRA.DIHEDRAL.0>
8.98184

>  <SCORE.INTRA.POLAR>
-0.889482

>  <SCORE.INTRA.POLAR.0>
0

>  <SCORE.INTRA.REPUL>
0

>  <SCORE.INTRA.REPUL.0>
0

>  <SCORE.INTRA.VDW>
0.534011

>  <SCORE.INTRA.VDW.0>
-1.60828

>  <SCORE.INTRA.norm>
-0.085505

>  <SCORE.RESTR>
0

>  <SCORE.RESTR.CAVITY>
0

>  <SCORE.RESTR.norm>
0

>  <SCORE.SYSTEM>
-15.1894

>  <SCORE.SYSTEM.CONST>
0

>  <SCORE.SYSTEM.DIHEDRAL>
6.06571

>  <SCORE.SYSTEM.POLAR>
-5.00456

>  <SCORE.SYSTEM.REPUL>
0.141565

>  <SCORE.SYSTEM.VDW>
-1.91462

>  <SCORE.SYSTEM.norm>
-0.759471

>  <SCORE.heavy>
20

>  <SCORE.norm>
-1.73328

$$$$

  rDOCK(R)          3D
libRbt.so/2013.1/901 2013/11/27
 25 26  0  0  0  0  0  0  0  0999 V2000
    0.3019    7.9524   18.3008 C   0  0  0  0  0  0
   -0.2661    7.1632   19.3189 O   0  0  0  0  0  0
    1.5323    8.6868   18.7563 C   0  0  0  0  0  0
    2.3984    8.7356   17.4955 C   0  0  0  0  0  0
    2.4751   10.1183   16.9695 N   0  0  0  0  0  0
    1.3977   10.6680   16.3219 C   0  0  0  0  0  0
    1.4559   11.9576   15.8002 C   0  0  0  0  0  0
    2.6314   12.6890   15.9568 C   0  0  0  0  0  0
    2.7393   13.8903   15.4851 N   0  0  0  0  0  0
    3.6742   12.1357   16.6207 N   0  0  0  0  0  0
    3.6137   10.8787   17.1341 C   0  0  0  0  0  0
    4.7307   10.4078   17.8300 O   0  0  0  0  0  0
    1.8699    7.8467   16.5260 O   0  0  0  0  0  0
    0.8203    7.1262   17.1283 C   0  0  0  0  0  0
   -0.2724    6.8394   16.0886 C   0  0  0  0  0  0
    0.2773    6.2085   14.9493 O   0  0  0  0  0  0
   -0.6130    6.6318   13.5541 P   0  0  0  0  0  0
   -1.7245    5.6299   13.3312 O   0  0  0  0  0  0
   -1.2639    8.1892   13.7020 O   0  0  0  0  0  0
    0.4247    6.6012   12.2190 O   0  0  0  0  0  0
    0.4053    6.4893   19.6034 H   0  0  0  0  0  0
    1.9624   14.3619   14.9685 H   0  0  0  0  0  0
    5.4889   10.9943   18.1498 H   0  0  0  0  0  0
   -1.8704    8.2932   12.9258 H   0  0  0  0  0  0
    0.5218    7.5510   11.9555 H   0  0  0  0  0  0
  1  2  1  0  0  0
  1  3  1  0  0  0
  3  4  1  0  0  0
  4  5  1  0  0  0
  5  6  1  0  0  0
  6  7  2  0  0  0
  7  8  1  0  0  0
  8  9  2  0  0  0
  8 10  1  0  0  0
 10 11  2  0  0  0
 11 12  1  0  0  0
  4 13  1  0  0  0
 13 14  1  0  0  0
 14 15  1  0  0  0
 15 16  1  0  0  0
 16 17  1  0  0  0
 17 18  2  0  0  0
 17 19  1  0  0  0
 17 20  1  0  0  0
 14  1  1  0  0  0
 11  5  1  0  0  0
  2 21  1  0  0  0
  9 22  1  0  0  0
 12 23  1  0  0  0
 19 24  1  0  0  0
 20 25  1  0  0  0
M  END
>  <CHROM.0>
-56.16811139,175.80257317,64.63226326,-55.39142781,-178.43162611,-45.10124639
-60.10692926,-163.53118459,177.57139723,-65.85383378,62.14414507,171.38927611
-175.84294894

>  <CHROM.1>
-60.61861734,-74.32192116,-165.55392398,173.25036505,-149.40405403,-90.75562070
-171.42282195,-110.62309929,1.14747990,8.78224285,15.96619352,3.13608937
-1.00196453,-1.06778725

>  <RI>
2.0734e+07

>  <Rbt.Current_Directory>
/extra/banzai2/j5wagner/CELPP/2016_10_17_rdock_implementation/normal_run/tutorialVideo/tutorial_rdock_implementation/full_week_run/4-docking/5wrn/LMCSS_1hvy_docking

>  <Rbt.Executable>
rbdock ($Id: //depot/dev/client3/rdock/2013.1/src/exe/rbdock.cxx#4 $)

>  <Rbt.Library>
libRbt.so (2013.1, Build901 2013/11/27)

>  <Rbt.Parameter_File>
/home/j5wagner/env_00/source/rDock/rDock_2013.1_src//data/scripts/dock.prm

>  <Rbt.Receptor>
/extra/banzai2/j5wagner/CELPP/2016_10_17_rdock_implementation/normal_run/tutorialVideo/tutorial_rdock_implementation/full_week_run/4-docking/5wrn/LMCSS_1hvy_tech_prep/rDockGridGenInput.prm

>  <SCORE>
-34.2744

>  <SCORE.INTER>
-17.54

>  <SCORE.INTER.CONST>
1

>  <SCORE.INTER.POLAR>
-2.41162

>  <SCORE.INTER.REPUL>
0

>  <SCORE.INTER.ROT>
4

>  <SCORE.INTER.VDW>
-18.7405

>  <SCORE.INTER.norm>
-0.877002

>  <SCORE.INTRA>
0.737737

>  <SCORE.INTRA.DIHEDRAL>
1.25828

>  <SCORE.INTRA.DIHEDRAL.0>
8.98184

>  <SCORE.INTRA.POLAR>
0

>  <SCORE.INTRA.POLAR.0>
0

>  <SCORE.INTRA.REPUL>
0

>  <SCORE.INTRA.REPUL.0>
0

>  <SCORE.INTRA.VDW>
0.108597

>  <SCORE.INTRA.VDW.0>
-1.60828

>  <SCORE.INTRA.norm>
0.0368868

>  <SCORE.RESTR>
0

>  <SCORE.RESTR.CAVITY>
0

>  <SCORE.RESTR.norm>
0

>  <SCORE.SYSTEM>
-17.4721

>  <SCORE.SYSTEM.CONST>
0

>  <SCORE.SYSTEM.DIHEDRAL>
1.59832

>  <SCORE.SYSTEM.POLAR>
-4.32524

>  <SCORE.SYSTEM.VDW>
-3.56546

>  <SCORE.SYSTEM.norm>
-0.873606

>  <SCORE.heavy>
20

>  <SCORE.norm>
-1.71372

$$$$

  rDOCK(R)          3D
libRbt.so/2013.1/901 2013/11/27
 25 26  0  0  0  0  0  0  0  0999 V2000
   -1.8500    4.2833   15.2679 C   0  0  0  0  0  0
   -2.5529    4.0109   14.0789 O   0  0  0  0  0  0
   -1.6473    5.7555   15.4960 C   0  0  0  0  0  0
   -1.6945    5.8839   17.0203 C   0  0  0  0  0  0
   -0.3524    6.2070   17.5576 N   0  0  0  0  0  0
    0.3705    5.2492   18.2230 C   0  0  0  0  0  0
    1.6242    5.5377   18.7552 C   0  0  0  0  0  0
    2.1402    6.8216   18.5910 C   0  0  0  0  0  0
    3.2989    7.1431   19.0719 N   0  0  0  0  0  0
    1.4202    7.7444   17.9098 N   0  0  0  0  0  0
    0.1987    7.4594   17.3860 C   0  0  0  0  0  0
   -0.4529    8.4694   16.6726 O   0  0  0  0  0  0
   -2.1946    4.6810   17.5793 O   0  0  0  0  0  0
   -2.6088    3.8522   16.5186 C   0  0  0  0  0  0
   -2.3502    2.3826   16.8803 C   0  0  0  0  0  0
   -1.0900    1.9646   16.3952 O   0  0  0  0  0  0
   -0.9257    0.2724   16.5630 P   0  0  0  0  0  0
    0.4423   -0.1603   16.0832 O   0  0  0  0  0  0
   -1.1450   -0.1990   18.1757 O   0  0  0  0  0  0
   -2.1018   -0.4834   15.6112 O   0  0  0  0  0  0
   -3.5129    4.2146   14.2297 H   0  0  0  0  0  0
    3.8937    6.4662   19.6020 H   0  0  0  0  0  0
   -0.0130    9.3298   16.3769 H   0  0  0  0  0  0
   -1.5627   -1.0960   18.1305 H   0  0  0  0  0  0
   -2.0208   -0.0518   14.7235 H   0  0  0  0  0  0
  1  2  1  0  0  0
  1  3  1  0  0  0
  3  4  1  0  0  0
  4  5  1  0  0  0
  5  6  1  0  0  0
  6  7  2  0  0  0
  7  8  1  0  0  0
  8  9  2  0  0  0
  8 10  1  0  0  0
 10 11  2  0  0  0
 11 12  1  0  0  0
  4 13  1  0  0  0
 13 14  1  0  0  0
 14 15  1  0  0  0
 15 16  1  0  0  0
 16 17  1  0  0  0
 17 18  2  0  0  0
 17 19  1  0  0  0
 17 20  1  0  0  0
 14  1  1  0  0  0
 11  5  1  0  0  0
  2 21  1  0  0  0
  9 22  1  0  0  0
 12 23  1  0  0  0
 19 24  1  0  0  0
 20 25  1  0  0  0
M  END
>  <CHROM.0>
70.44971013,-73.69034054,80.20345269,-176.49069091,71.33152291,-160.58435680
-53.77235780,-154.96325905,23.34257055,-64.73934982,-175.00588460,11.22812686
-124.74853050

>  <CHROM.1>
-75.80133035,-106.64521431,-167.78756996,26.41796215,-170.29914964,-178.17555435
147.25785833,49.69608762,-0.64577388,3.98458178,16.91800831,1.96576139,0.63290970
3.11647578

>  <RI>
2.0734e+07

>  <Rbt.Current_Directory>
/extra/banzai2/j5wagner/CELPP/2016_10_17_rdock_implementation/normal_run/tutorialVideo/tutorial_rdock_implementation/full_week_run/4-docking/5wrn/LMCSS_1hvy_docking

>  <Rbt.Executable>
rbdock ($Id: //depot/dev/client3/rdock/2013.1/src/exe/rbdock.cxx#4 $)

>  <Rbt.Library>
libRbt.so (2013.1, Build901 2013/11/27)

>  <Rbt.Parameter_File>
/home/j5wagner/env_00/source/rDock/rDock_2013.1_src//data/scripts/dock.prm

>  <Rbt.Receptor>
/extra/banzai2/j5wagner/CELPP/2016_10_17_rdock_implementation/normal_run/tutorialVideo/tutorial_rdock_implementation/full_week_run/4-docking/5wrn/LMCSS_1hvy_tech_prep/rDockGridGenInput.prm

>  <SCORE>
-34.0843

>  <SCORE.INTER>
-20.9921

>  <SCORE.INTER.CONST>
1

>  <SCORE.INTER.POLAR>
-4.38479

>  <SCORE.INTER.REPUL>
0

>  <SCORE.INTER.ROT>
4

>  <SCORE.INTER.VDW>
-15.4838

>  <SCORE.INTER.norm>
-1.0496

>  <SCORE.INTRA>
0.773418

>  <SCORE.INTRA.DIHEDRAL>
-0.0530953

>  <SCORE.INTRA.DIHEDRAL.0>
8.98184

>  <SCORE.INTRA.POLAR>
0

>  <SCORE.INTRA.POLAR.0>
0

>  <SCORE.INTRA.REPUL>
0

>  <SCORE.INTRA.REPUL.0>
0

>  <SCORE.INTRA.VDW>
0.799965

>  <SCORE.INTRA.VDW.0>
-1.60828

>  <SCORE.INTRA.norm>
0.0386709

>  <SCORE.RESTR>
0

>  <SCORE.RESTR.CAVITY>
0

>  <SCORE.RESTR.norm>
0

>  <SCORE.SYSTEM>
-13.8656

>  <SCORE.SYSTEM.CONST>
0

>  <SCORE.SYSTEM.DIHEDRAL>
9.95464

>  <SCORE.SYSTEM.POLAR>
-4.79536

>  <SCORE.SYSTEM.REPUL>
0.10138

>  <SCORE.SYSTEM.VDW>
-3.04564

>  <SCORE.SYSTEM.norm>
-0.693282

>  <SCORE.heavy>
20

>  <SCORE.norm>
-1.70422

$$$$

  rDOCK(R)          3D
libRbt.so/2013.1/901 2013/11/27
 25 26  0  0  0  0  0  0  0  0999 V2000
   -0.9302    8.5038   17.0895 C   0  0  0  0  0  0
   -1.9602    7.6649   17.5558 O   0  0  0  0  0  0
   -0.4692    9.4870   18.1294 C   0  0  0  0  0  0
    1.0213    9.6489   17.8225 C   0  0  0  0  0  0
    1.2953   10.9941   17.2660 N   0  0  0  0  0  0
    0.6242   12.0883   17.7508 C   0  0  0  0  0  0
    0.8501   13.3583   17.2270 C   0  0  0  0  0  0
    1.7829   13.5019   16.2019 C   0  0  0  0  0  0
    2.0256   14.6603   15.6762 N   0  0  0  0  0  0
    2.4515   12.4121   15.7553 N   0  0  0  0  0  0
    2.2337   11.1738   16.2716 C   0  0  0  0  0  0
    2.9959   10.1169   15.7659 O   0  0  0  0  0  0
    1.4314    8.6301   16.9263 O   0  0  0  0  0  0
    0.3497    7.7442   16.7565 C   0  0  0  0  0  0
    0.3482    7.2000   15.3209 C   0  0  0  0  0  0
   -0.4475    8.0122   14.4811 O   0  0  0  0  0  0
   -0.7575    7.2087   13.0057 P   0  0  0  0  0  0
    0.5322    7.0376   12.2338 O   0  0  0  0  0  0
   -1.4688    5.6954   13.2797 O   0  0  0  0  0  0
   -1.8212    8.1509   12.0885 O   0  0  0  0  0  0
   -1.6182    7.1538   18.3354 H   0  0  0  0  0  0
    1.5384   15.5310   15.9880 H   0  0  0  0  0  0
    2.8283    9.1435   15.9791 H   0  0  0  0  0  0
   -0.7819    5.1676   13.7599 H   0  0  0  0  0  0
   -2.5510    8.3865   12.7152 H   0  0  0  0  0  0
  1  2  1  0  0  0
  1  3  1  0  0  0
  3  4  1  0  0  0
  4  5  1  0  0  0
  5  6  1  0  0  0
  6  7  2  0  0  0
  7  8  1  0  0  0
  8  9  2  0  0  0
  8 10  1  0  0  0
 10 11  2  0  0  0
 11 12  1  0  0  0
  4 13  1  0  0  0
 13 14  1  0  0  0
 14 15  1  0  0  0
 15 16  1  0  0  0
 16 17  1  0  0  0
 17 18  2  0  0  0
 17 19  1  0  0  0
 17 20  1  0  0  0
 14  1  1  0  0  0
 11  5  1  0  0  0
  2 21  1  0  0  0
  9 22  1  0  0  0
 12 23  1  0  0  0
 19 24  1  0  0  0
 20 25  1  0  0  0
M  END
>  <CHROM.0>
62.90693044,-76.41066952,177.86196886,-55.10358739,71.81869285,-46.71992845
-61.38939244,-173.85467431,5.51816861,178.52699421,61.25668532,-3.77679084
179.08825647

>  <CHROM.1>
-60.35917312,37.93716039,9.56543581,28.22498111,-166.14970042,-66.02514265
-64.51106480,-48.63503561,0.37911625,9.39447549,15.58213982,2.50969333,-1.09476071
-1.73497261

>  <RI>
2.0734e+07

>  <Rbt.Current_Directory>
/extra/banzai2/j5wagner/CELPP/2016_10_17_rdock_implementation/normal_run/tutorialVideo/tutorial_rdock_implementation/full_week_run/4-docking/5wrn/LMCSS_1hvy_docking

>  <Rbt.Executable>
rbdock ($Id: //depot/dev/client3/rdock/2013.1/src/exe/rbdock.cxx#4 $)

>  <Rbt.Library>
libRbt.so (2013.1, Build901 2013/11/27)

>  <Rbt.Parameter_File>
/home/j5wagner/env_00/source/rDock/rDock_2013.1_src//data/scripts/dock.prm

>  <Rbt.Receptor>
/extra/banzai2/j5wagner/CELPP/2016_10_17_rdock_implementation/normal_run/tutorialVideo/tutorial_rdock_implementation/full_week_run/4-docking/5wrn/LMCSS_1hvy_tech_prep/rDockGridGenInput.prm

>  <SCORE>
-33.4194

>  <SCORE.INTER>
-15.0325

>  <SCORE.INTER.CONST>
1

>  <SCORE.INTER.POLAR>
-1.59296

>  <SCORE.INTER.REPUL>
0.0319141

>  <SCORE.INTER.ROT>
4

>  <SCORE.INTER.VDW>
-19.176

>  <SCORE.INTER.norm>
-0.751623

>  <SCORE.INTRA>
-0.262717

>  <SCORE.INTRA.DIHEDRAL>
-2.26543

>  <SCORE.INTRA.DIHEDRAL.0>
8.98184

>  <SCORE.INTRA.POLAR>
-0.433265

>  <SCORE.INTRA.POLAR.0>
0

>  <SCORE.INTRA.REPUL>
0

>  <SCORE.INTRA.REPUL.0>
0

>  <SCORE.INTRA.VDW>
2.3431

>  <SCORE.INTRA.VDW.0>
-1.60828

>  <SCORE.INTRA.norm>
-0.0131358

>  <SCORE.RESTR>
0

>  <SCORE.RESTR.CAVITY>
0

>  <SCORE.RESTR.norm>
0

>  <SCORE.SYSTEM>
-18.1242

>  <SCORE.SYSTEM.CONST>
0

>  <SCORE.SYSTEM.DIHEDRAL>
2.6945

>  <SCORE.SYSTEM.POLAR>
-5.4131

>  <SCORE.SYSTEM.REPUL>
0.0247639

>  <SCORE.SYSTEM.VDW>
-1.19073

>  <SCORE.SYSTEM.norm>
-0.906209

>  <SCORE.heavy>
20

>  <SCORE.norm>
-1.67097

$$$$

  rDOCK(R)          3D
libRbt.so/2013.1/901 2013/11/27
 25 26  0  0  0  0  0  0  0  0999 V2000
   -1.4967    3.8531   18.0796 C   0  0  0  0  0  0
   -1.9671    3.2739   19.2734 O   0  0  0  0  0  0
   -1.3804    5.3495   18.1689 C   0  0  0  0  0  0
   -0.1785    5.6618   17.2745 C   0  0  0  0  0  0
   -0.6147    6.3511   16.0379 N   0  0  0  0  0  0
   -0.8437    5.6300   14.8933 C   0  0  0  0  0  0
   -1.2326    6.2602   13.7143 C   0  0  0  0  0  0
   -1.3961    7.6439   13.7192 C   0  0  0  0  0  0
   -1.7508    8.2791   12.6477 N   0  0  0  0  0  0
   -1.1884    8.3330   14.8664 N   0  0  0  0  0  0
   -0.8140    7.7155   16.0179 C   0  0  0  0  0  0
   -0.6545    8.5091   17.1574 O   0  0  0  0  0  0
    0.5113    4.4601   16.9754 O   0  0  0  0  0  0
   -0.0739    3.4270   17.7330 C   0  0  0  0  0  0
   -0.0357    2.1160   16.9349 C   0  0  0  0  0  0
   -0.5440    1.0472   17.7079 O   0  0  0  0  0  0
   -0.6538   -0.3678   16.7570 P   0  0  0  0  0  0
    0.5160   -0.4349   15.8001 O   0  0  0  0  0  0
   -0.6776   -1.7521   17.7340 O   0  0  0  0  0  0
   -2.0878   -0.3097   15.8623 O   0  0  0  0  0  0
   -1.5084    3.7140   20.0363 H   0  0  0  0  0  0
   -1.9259    7.7924   11.7392 H   0  0  0  0  0  0
   -0.3386    8.1610   18.0518 H   0  0  0  0  0  0
   -0.7368   -2.5145   17.1045 H   0  0  0  0  0  0
   -1.9140    0.3604   15.1540 H   0  0  0  0  0  0
  1  2  1  0  0  0
  1  3  1  0  0  0
  3  4  1  0  0  0
  4  5  1  0  0  0
  5  6  1  0  0  0
  6  7  2  0  0  0
  7  8  1  0  0  0
  8  9  2  0  0  0
  8 10  1  0  0  0
 10 11  2  0  0  0
 11 12  1  0  0  0
  4 13  1  0  0  0
 13 14  1  0  0  0
 14 15  1  0  0  0
 15 16  1  0  0  0
 16 17  1  0  0  0
 17 18  2  0  0  0
 17 19  1  0  0  0
 17 20  1  0  0  0
 14  1  1  0  0  0
 11  5  1  0  0  0
  2 21  1  0  0  0
  9 22  1  0  0  0
 12 23  1  0  0  0
 19 24  1  0  0  0
 20 25  1  0  0  0
M  END
>  <CHROM.0>
-177.04779549,179.38956470,68.07051176,-55.34216602,-179.01698958,-167.36279427
-60.51429618,-159.13380785,177.96391320,-66.03863920,-177.86520162,2.45897452
7.62975719

>  <CHROM.1>
-42.71891652,-95.18092487,3.45211986,-63.78793533,173.91847282,36.75850857
-179.69640056,73.87168726,-0.81761581,3.83161192,16.44869217,-0.80355455
-1.50364424,0.52334187

>  <RI>
2.0734e+07

>  <Rbt.Current_Directory>
/extra/banzai2/j5wagner/CELPP/2016_10_17_rdock_implementation/normal_run/tutorialVideo/tutorial_rdock_implementation/full_week_run/4-docking/5wrn/LMCSS_1hvy_docking

>  <Rbt.Executable>
rbdock ($Id: //depot/dev/client3/rdock/2013.1/src/exe/rbdock.cxx#4 $)

>  <Rbt.Library>
libRbt.so (2013.1, Build901 2013/11/27)

>  <Rbt.Parameter_File>
/home/j5wagner/env_00/source/rDock/rDock_2013.1_src//data/scripts/dock.prm

>  <Rbt.Receptor>
/extra/banzai2/j5wagner/CELPP/2016_10_17_rdock_implementation/normal_run/tutorialVideo/tutorial_rdock_implementation/full_week_run/4-docking/5wrn/LMCSS_1hvy_tech_prep/rDockGridGenInput.prm

>  <SCORE>
-29.0671

>  <SCORE.INTER>
-10.3201

>  <SCORE.INTER.CONST>
1

>  <SCORE.INTER.POLAR>
-3.38451

>  <SCORE.INTER.REPUL>
0.0679827

>  <SCORE.INTER.ROT>
4

>  <SCORE.INTER.VDW>
-8.55268

>  <SCORE.INTER.norm>
-0.516005

>  <SCORE.INTRA>
-1.1982

>  <SCORE.INTRA.DIHEDRAL>
-3.81477

>  <SCORE.INTRA.DIHEDRAL.0>
8.98184

>  <SCORE.INTRA.POLAR>
0

>  <SCORE.INTRA.POLAR.0>
0

>  <SCORE.INTRA.REPUL>
0

>  <SCORE.INTRA.REPUL.0>
0

>  <SCORE.INTRA.VDW>
0.709182

>  <SCORE.INTRA.VDW.0>
-1.60828

>  <SCORE.INTRA.norm>
-0.0599101

>  <SCORE.RESTR>
0

>  <SCORE.RESTR.CAVITY>
0

>  <SCORE.RESTR.norm>
0

>  <SCORE.SYSTEM>
-17.5488

>  <SCORE.SYSTEM.CONST>
0

>  <SCORE.SYSTEM.DIHEDRAL>
1.75448

>  <SCORE.SYSTEM.POLAR>
-4.33722

>  <SCORE.SYSTEM.REPUL>
0.00333211

>  <SCORE.SYSTEM.VDW>
-3.69612

>  <SCORE.SYSTEM.norm>
-0.877438

>  <SCORE.heavy>
20

>  <SCORE.norm>
-1.45335

$$$$

  rDOCK(R)          3D
libRbt.so/2013.1/901 2013/11/27
 25 26  0  0  0  0  0  0  0  0999 V2000
    2.3123    8.2512   15.5286 C   0  0  0  0  0  0
    3.0335    8.0933   14.3299 O   0  0  0  0  0  0
    1.8723    6.9392   16.1164 C   0  0  0  0  0  0
    1.9194    7.1971   17.6242 C   0  0  0  0  0  0
    0.5502    7.2453   18.1874 N   0  0  0  0  0  0
   -0.0110    6.1159   18.7277 C   0  0  0  0  0  0
   -1.3045    6.1335   19.2423 C   0  0  0  0  0  0
   -2.0208    7.3281   19.2080 C   0  0  0  0  0  0
   -3.2295    7.3965   19.6681 N   0  0  0  0  0  0
   -1.4386    8.4367   18.6922 N   0  0  0  0  0  0
   -0.1736    8.4191   18.1952 C   0  0  0  0  0  0
    0.3508    9.6218   17.7132 O   0  0  0  0  0  0
    2.6195    8.4040   17.8742 O   0  0  0  0  0  0
    3.1499    8.8563   16.6504 C   0  0  0  0  0  0
    3.1431   10.3914   16.6205 C   0  0  0  0  0  0
    1.9932   10.8715   15.9532 O   0  0  0  0  0  0
    2.4419   11.7047   14.5309 P   0  0  0  0  0  0
    3.3241   12.8822   14.8828 O   0  0  0  0  0  0
    3.2568   10.6756   13.4593 O   0  0  0  0  0  0
    1.0424   12.2785   13.7745 O   0  0  0  0  0  0
    3.2384    8.9947   13.9672 H   0  0  0  0  0  0
   -3.7210    6.5701   20.0786 H   0  0  0  0  0  0
    0.7634    9.7345   16.7978 H   0  0  0  0  0  0
    3.7689   11.2756   12.8603 H   0  0  0  0  0  0
    1.2646   12.2864   12.8094 H   0  0  0  0  0  0
  1  2  1  0  0  0
  1  3  1  0  0  0
  3  4  1  0  0  0
  4  5  1  0  0  0
  5  6  1  0  0  0
  6  7  2  0  0  0
  7  8  1  0  0  0
  8  9  2  0  0  0
  8 10  1  0  0  0
 10 11  2  0  0  0
 11 12  1  0  0  0
  4 13  1  0  0  0
 13 14  1  0  0  0
 14 15  1  0  0  0
 15 16  1  0  0  0
 16 17  1  0  0  0
 17 18  2  0  0  0
 17 19  1  0  0  0
 17 20  1  0  0  0
 14  1  1  0  0  0
 11  5  1  0  0  0
  2 21  1  0  0  0
  9 22  1  0  0  0
 12 23  1  0  0  0
 19 24  1  0  0  0
 20 25  1  0  0  0
M  END
>  <CHROM.0>
63.18152443,-79.14678080,78.45236638,-56.16496313,73.93697501,-164.03307476
-61.89983304,94.86041590,8.82646927,179.40416747,-174.38242784,2.13376530
11.61917799

>  <CHROM.1>
176.24647609,94.28910064,52.69329116,23.63597013,-115.71285417,-60.34977658
-158.90281961,-149.92307877,1.28970943,9.14180250,16.59547791,-0.90926095
-0.52823568,2.70088235

>  <RI>
2.0734e+07

>  <Rbt.Current_Directory>
/extra/banzai2/j5wagner/CELPP/2016_10_17_rdock_implementation/normal_run/tutorialVideo/tutorial_rdock_implementation/full_week_run/4-docking/5wrn/LMCSS_1hvy_docking

>  <Rbt.Executable>
rbdock ($Id: //depot/dev/client3/rdock/2013.1/src/exe/rbdock.cxx#4 $)

>  <Rbt.Library>
libRbt.so (2013.1, Build901 2013/11/27)

>  <Rbt.Parameter_File>
/home/j5wagner/env_00/source/rDock/rDock_2013.1_src//data/scripts/dock.prm

>  <Rbt.Receptor>
/extra/banzai2/j5wagner/CELPP/2016_10_17_rdock_implementation/normal_run/tutorialVideo/tutorial_rdock_implementation/full_week_run/4-docking/5wrn/LMCSS_1hvy_tech_prep/rDockGridGenInput.prm

>  <SCORE>
-27.6879

>  <SCORE.INTER>
-10.5071

>  <SCORE.INTER.CONST>
1

>  <SCORE.INTER.POLAR>
-1.02798

>  <SCORE.INTER.REPUL>
0

>  <SCORE.INTER.ROT>
4

>  <SCORE.INTER.VDW>
-16.4119

>  <SCORE.INTER.norm>
-0.525354

>  <SCORE.INTRA>
-1.38212

>  <SCORE.INTRA.DIHEDRAL>
9.05826

>  <SCORE.INTRA.DIHEDRAL.0>
8.98184

>  <SCORE.INTRA.POLAR>
-1.76029

>  <SCORE.INTRA.POLAR.0>
0

>  <SCORE.INTRA.REPUL>
0

>  <SCORE.INTRA.REPUL.0>
0

>  <SCORE.INTRA.VDW>
0.0737506

>  <SCORE.INTRA.VDW.0>
-1.60828

>  <SCORE.INTRA.norm>
-0.0691058

>  <SCORE.RESTR>
0

>  <SCORE.RESTR.CAVITY>
0

>  <SCORE.RESTR.norm>
0

>  <SCORE.SYSTEM>
-15.7987

>  <SCORE.SYSTEM.CONST>
0

>  <SCORE.SYSTEM.DIHEDRAL>
10.0696

>  <SCORE.SYSTEM.POLAR>
-6.08497

>  <SCORE.SYSTEM.REPUL>
0.0286996

>  <SCORE.SYSTEM.VDW>
-0.288078

>  <SCORE.SYSTEM.norm>
-0.789934

>  <SCORE.heavy>
20

>  <SCORE.norm>
-1.38439

$$$$

  rDOCK(R)          3D
libRbt.so/2013.1/901 2013/11/27
 25 26  0  0  0  0  0  0  0  0999 V2000
   -0.4612    2.5992   16.3455 C   0  0  0  0  0  0
   -0.3458    1.9565   15.0983 O   0  0  0  0  0  0
    0.0483    4.0135   16.3172 C   0  0  0  0  0  0
   -0.8598    4.7335   17.3166 C   0  0  0  0  0  0
   -0.1038    5.1009   18.5364 N   0  0  0  0  0  0
    0.9902    5.9240   18.4451 C   0  0  0  0  0  0
    1.7282    6.2640   19.5757 C   0  0  0  0  0  0
    1.3284    5.7589   20.8111 C   0  0  0  0  0  0
    1.9838    6.0399   21.8922 N   0  0  0  0  0  0
    0.2313    4.9680   20.8815 N   0  0  0  0  0  0
   -0.4913    4.6415   19.7776 C   0  0  0  0  0  0
   -1.6257    3.8449   19.9570 O   0  0  0  0  0  0
   -1.9666    3.9049   17.6296 O   0  0  0  0  0  0
   -1.9090    2.7741   16.7920 C   0  0  0  0  0  0
   -2.4395    1.5459   17.5453 C   0  0  0  0  0  0
   -2.4739    0.4168   16.6955 O   0  0  0  0  0  0
   -3.8782   -0.5073   16.9998 P   0  0  0  0  0  0
   -4.0981   -1.4926   15.8731 O   0  0  0  0  0  0
   -3.7487   -1.3365   18.4718 O   0  0  0  0  0  0
   -5.2069    0.5360   17.0791 O   0  0  0  0  0  0
    0.6162    1.9147   14.8561 H   0  0  0  0  0  0
    2.8343    6.6478   21.8905 H   0  0  0  0  0  0
   -2.2585    3.5829   19.2140 H   0  0  0  0  0  0
   -2.9421   -1.9042   18.3811 H   0  0  0  0  0  0
   -4.9552    1.2109   17.7589 H   0  0  0  0  0  0
  1  2  1  0  0  0
  1  3  1  0  0  0
  3  4  1  0  0  0
  4  5  1  0  0  0
  5  6  1  0  0  0
  6  7  2  0  0  0
  7  8  1  0  0  0
  8  9  2  0  0  0
  8 10  1  0  0  0
 10 11  2  0  0  0
 11 12  1  0  0  0
  4 13  1  0  0  0
 13 14  1  0  0  0
 14 15  1  0  0  0
 15 16  1  0  0  0
 16 17  1  0  0  0
 17 18  2  0  0  0
 17 19  1  0  0  0
 17 20  1  0  0  0
 14  1  1  0  0  0
 11  5  1  0  0  0
  2 21  1  0  0  0
  9 22  1  0  0  0
 12 23  1  0  0  0
 19 24  1  0  0  0
 20 25  1  0  0  0
M  END
>  <CHROM.0>
177.75303432,177.44170836,67.61458599,66.56024821,-67.90829616,69.88419838
65.13673529,-161.86730291,165.81253475,-71.09445165,57.34606409,-8.47305172
20.19403758

>  <CHROM.1>
61.76667118,59.55821290,-2.72287576,-64.08683390,-140.98811778,165.40966538
-58.61044056,-54.19075669,-1.42869391,2.73401139,17.98592874,-2.58112810
0.83711486,1.34617668

>  <RI>
2.0734e+07

>  <Rbt.Current_Directory>
/extra/banzai2/j5wagner/CELPP/2016_10_17_rdock_implementation/normal_run/tutorialVideo/tutorial_rdock_implementation/full_week_run/4-docking/5wrn/LMCSS_1hvy_docking

>  <Rbt.Executable>
rbdock ($Id: //depot/dev/client3/rdock/2013.1/src/exe/rbdock.cxx#4 $)

>  <Rbt.Library>
libRbt.so (2013.1, Build901 2013/11/27)

>  <Rbt.Parameter_File>
/home/j5wagner/env_00/source/rDock/rDock_2013.1_src//data/scripts/dock.prm

>  <Rbt.Receptor>
/extra/banzai2/j5wagner/CELPP/2016_10_17_rdock_implementation/normal_run/tutorialVideo/tutorial_rdock_implementation/full_week_run/4-docking/5wrn/LMCSS_1hvy_tech_prep/rDockGridGenInput.prm

>  <SCORE>
-22.8247

>  <SCORE.INTER>
-15.0818

>  <SCORE.INTER.CONST>
1

>  <SCORE.INTER.POLAR>
-3.38371

>  <SCORE.INTER.REPUL>
0.350701

>  <SCORE.INTER.ROT>
4

>  <SCORE.INTER.VDW>
-14.7307

>  <SCORE.INTER.norm>
-0.754089

>  <SCORE.INTRA>
0.256819

>  <SCORE.INTRA.DIHEDRAL>
-0.827217

>  <SCORE.INTRA.DIHEDRAL.0>
8.98184

>  <SCORE.INTRA.POLAR>
-0.45393

>  <SCORE.INTRA.POLAR.0>
0

>  <SCORE.INTRA.REPUL>
0

>  <SCORE.INTRA.REPUL.0>
0

>  <SCORE.INTRA.VDW>
2.21379

>  <SCORE.INTRA.VDW.0>
-1.60828

>  <SCORE.INTRA.norm>
0.012841

>  <SCORE.RESTR>
0

>  <SCORE.RESTR.CAVITY>
0

>  <SCORE.RESTR.norm>
0

>  <SCORE.SYSTEM>
-7.99977

>  <SCORE.SYSTEM.CONST>
0

>  <SCORE.SYSTEM.DIHEDRAL>
3.18693

>  <SCORE.SYSTEM.POLAR>
-2.13227

>  <SCORE.SYSTEM.REPUL>
0.137977

>  <SCORE.SYSTEM.VDW>
-3.03341

>  <SCORE.SYSTEM.norm>
-0.399989

>  <SCORE.heavy>
20

>  <SCORE.norm>
-1.14124

$$$$
