
  rDOCK(R)          3D
libRbt.so/2013.1/901 2013/11/27
 25 26  0  0  0  0  0  0  0  0999 V2000
   -4.2334    0.9213   16.2115 C   0  0  0  0  0  0
   -5.3919    1.5383   16.7206 O   0  0  0  0  0  0
   -3.0435    1.0892   17.1152 C   0  0  0  0  0  0
   -2.2600   -0.2090   16.9081 C   0  0  0  0  0  0
   -1.0037    0.0533   16.1683 N   0  0  0  0  0  0
   -1.0200    0.1540   14.8000 C   0  0  0  0  0  0
    0.1524    0.3779   14.0833 C   0  0  0  0  0  0
    1.3492    0.5088   14.7846 C   0  0  0  0  0  0
    2.4683    0.7121   14.1652 N   0  0  0  0  0  0
    1.3386    0.4302   16.1366 N   0  0  0  0  0  0
    0.1923    0.2170   16.8350 C   0  0  0  0  0  0
    0.2792    0.1829   18.2297 O   0  0  0  0  0  0
   -3.0730   -1.1458   16.2221 O   0  0  0  0  0  0
   -4.3642   -0.5947   16.1087 C   0  0  0  0  0  0
   -4.9997   -1.0367   14.7828 C   0  0  0  0  0  0
   -6.0293   -0.1459   14.4025 O   0  0  0  0  0  0
   -7.4992   -0.5898   15.1516 P   0  0  0  0  0  0
   -7.4334   -0.2843   16.6318 O   0  0  0  0  0  0
   -8.8059    0.2315   14.4523 O   0  0  0  0  0  0
   -7.7308   -2.2527   14.9476 O   0  0  0  0  0  0
   -6.1402    1.3659   16.0912 H   0  0  0  0  0  0
    2.5282    0.7834   13.1239 H   0  0  0  0  0  0
   -0.5127    0.0582   18.8448 H   0  0  0  0  0  0
   -9.5886    0.0027   15.0145 H   0  0  0  0  0  0
   -7.9494   -2.3592   13.9875 H   0  0  0  0  0  0
  1  2  1  0  0  0
  1  3  1  0  0  0
  3  4  1  0  0  0
  4  5  1  0  0  0
  5  6  1  0  0  0
  6  7  2  0  0  0
  7  8  1  0  0  0
  8  9  2  0  0  0
  8 10  1  0  0  0
 10 11  2  0  0  0
 11 12  1  0  0  0
  4 13  1  0  0  0
 13 14  1  0  0  0
 14 15  1  0  0  0
 15 16  1  0  0  0
 16 17  1  0  0  0
 17 18  2  0  0  0
 17 19  1  0  0  0
 17 20  1  0  0  0
 14  1  1  0  0  0
 11  5  1  0  0  0
  2 21  1  0  0  0
  9 22  1  0  0  0
 12 23  1  0  0  0
 19 24  1  0  0  0
 20 25  1  0  0  0
M  END
>  <CHROM.0>
-169.19963429,175.15428139,-47.28183259,68.79265335,-55.96792733,-16.79508289
-61.87639888,-62.84795763,-171.36457853,-88.58012895

>  <CHROM.1>
-178.32475940,-82.22872031,-1.34786316,-38.26457443,-85.48012363,71.20077065
-173.17349362,-71.66867708,-3.49202640,-0.04484694,15.71501673,3.05950415
-0.09281464,-1.78197439

>  <RI>
4.38658e+07

>  <Rbt.Current_Directory>
/extra/banzai2/j5wagner/CELPP/2016_10_17_rdock_implementation/normal_run/tutorialVideo/tutorial_rdock_implementation/full_week_run/4-docking/5wrn/SMCSS_4g6w_docking

>  <Rbt.Executable>
rbdock ($Id: //depot/dev/client3/rdock/2013.1/src/exe/rbdock.cxx#4 $)

>  <Rbt.Library>
libRbt.so (2013.1, Build901 2013/11/27)

>  <Rbt.Parameter_File>
/home/j5wagner/env_00/source/rDock/rDock_2013.1_src//data/scripts/dock.prm

>  <Rbt.Receptor>
/extra/banzai2/j5wagner/CELPP/2016_10_17_rdock_implementation/normal_run/tutorialVideo/tutorial_rdock_implementation/full_week_run/4-docking/5wrn/SMCSS_4g6w_tech_prep/rDockGridGenInput.prm

>  <SCORE>
-36.1652

>  <SCORE.INTER>
-31.7901

>  <SCORE.INTER.CONST>
1

>  <SCORE.INTER.POLAR>
-6.05397

>  <SCORE.INTER.REPUL>
0

>  <SCORE.INTER.ROT>
4

>  <SCORE.INTER.VDW>
-20.6066

>  <SCORE.INTER.norm>
-1.58951

>  <SCORE.INTRA>
-1.41492

>  <SCORE.INTRA.DIHEDRAL>
-1.64054

>  <SCORE.INTRA.DIHEDRAL.0>
8.98184

>  <SCORE.INTRA.POLAR>
-0.129469

>  <SCORE.INTRA.POLAR.0>
0

>  <SCORE.INTRA.REPUL>
0

>  <SCORE.INTRA.REPUL.0>
0

>  <SCORE.INTRA.VDW>
-0.154451

>  <SCORE.INTRA.VDW.0>
-1.60828

>  <SCORE.INTRA.norm>
-0.0707459

>  <SCORE.RESTR>
0

>  <SCORE.RESTR.CAVITY>
0

>  <SCORE.RESTR.norm>
0

>  <SCORE.SYSTEM>
-2.96016

>  <SCORE.SYSTEM.CONST>
0

>  <SCORE.SYSTEM.DIHEDRAL>
6.94811

>  <SCORE.SYSTEM.POLAR>
-1.37886

>  <SCORE.SYSTEM.VDW>
-1.74609

>  <SCORE.SYSTEM.norm>
-0.148008

>  <SCORE.heavy>
20

>  <SCORE.norm>
-1.80826

$$$$

  rDOCK(R)          3D
libRbt.so/2013.1/901 2013/11/27
 25 26  0  0  0  0  0  0  0  0999 V2000
   -1.8086   -1.7986   13.0120 C   0  0  0  0  0  0
   -0.9029   -2.1528   11.9941 O   0  0  0  0  0  0
   -3.0995   -2.5651   12.9305 C   0  0  0  0  0  0
   -3.5126   -2.7131   14.3966 C   0  0  0  0  0  0
   -4.7008   -1.8785   14.6898 N   0  0  0  0  0  0
   -5.9127   -2.4716   14.9393 C   0  0  0  0  0  0
   -7.0469   -1.7056   15.1950 C   0  0  0  0  0  0
   -6.9275   -0.3175   15.2032 C   0  0  0  0  0  0
   -7.9529    0.4405   15.4299 N   0  0  0  0  0  0
   -5.7167    0.2461   14.9785 N   0  0  0  0  0  0
   -4.6094   -0.5032   14.7344 C   0  0  0  0  0  0
   -3.3991    0.1701   14.5455 O   0  0  0  0  0  0
   -2.4216   -2.3631   15.2313 O   0  0  0  0  0  0
   -1.3002   -2.1468   14.4071 C   0  0  0  0  0  0
   -0.4272   -1.0340   15.0044 C   0  0  0  0  0  0
    0.6758   -0.7607   14.1636 O   0  0  0  0  0  0
    1.3689    0.7464   14.5719 P   0  0  0  0  0  0
    2.7938    0.8093   14.0675 O   0  0  0  0  0  0
    0.4694    2.0232   13.9147 O   0  0  0  0  0  0
    1.3793    0.8997   16.2562 O   0  0  0  0  0  0
   -0.7215   -3.1266   12.0620 H   0  0  0  0  0  0
   -8.9070    0.0539   15.6117 H   0  0  0  0  0  0
   -3.2834    1.1687   14.6473 H   0  0  0  0  0  0
   -0.3900    1.6189   13.6335 H   0  0  0  0  0  0
    1.5667    1.8584   16.4192 H   0  0  0  0  0  0
  1  2  1  0  0  0
  1  3  1  0  0  0
  3  4  1  0  0  0
  4  5  1  0  0  0
  5  6  1  0  0  0
  6  7  2  0  0  0
  7  8  1  0  0  0
  8  9  2  0  0  0
  8 10  1  0  0  0
 10 11  2  0  0  0
 11 12  1  0  0  0
  4 13  1  0  0  0
 13 14  1  0  0  0
 14 15  1  0  0  0
 15 16  1  0  0  0
 16 17  1  0  0  0
 17 18  2  0  0  0
 17 19  1  0  0  0
 17 20  1  0  0  0
 14  1  1  0  0  0
 11  5  1  0  0  0
  2 21  1  0  0  0
  9 22  1  0  0  0
 12 23  1  0  0  0
 19 24  1  0  0  0
 20 25  1  0  0  0
M  END
>  <CHROM.0>
-60.01383505,83.07875567,-48.29951797,-179.53815475,-172.22620614,-178.29885999
175.08384170,-59.72752935,-175.80096238,177.86518882

>  <CHROM.1>
-58.27495726,110.08719786,-174.71225948,-57.74603603,163.34180135,158.99149042
14.18915587,-165.95014118,-2.25318650,-0.70113028,14.47530394,-0.14635060
-0.14522690,-2.69957093

>  <RI>
4.38658e+07

>  <Rbt.Current_Directory>
/extra/banzai2/j5wagner/CELPP/2016_10_17_rdock_implementation/normal_run/tutorialVideo/tutorial_rdock_implementation/full_week_run/4-docking/5wrn/SMCSS_4g6w_docking

>  <Rbt.Executable>
rbdock ($Id: //depot/dev/client3/rdock/2013.1/src/exe/rbdock.cxx#4 $)

>  <Rbt.Library>
libRbt.so (2013.1, Build901 2013/11/27)

>  <Rbt.Parameter_File>
/home/j5wagner/env_00/source/rDock/rDock_2013.1_src//data/scripts/dock.prm

>  <Rbt.Receptor>
/extra/banzai2/j5wagner/CELPP/2016_10_17_rdock_implementation/normal_run/tutorialVideo/tutorial_rdock_implementation/full_week_run/4-docking/5wrn/SMCSS_4g6w_tech_prep/rDockGridGenInput.prm

>  <SCORE>
-30.6922

>  <SCORE.INTER>
-23.9395

>  <SCORE.INTER.CONST>
1

>  <SCORE.INTER.POLAR>
-5.20872

>  <SCORE.INTER.REPUL>
0

>  <SCORE.INTER.ROT>
4

>  <SCORE.INTER.VDW>
-15.6298

>  <SCORE.INTER.norm>
-1.19697

>  <SCORE.INTRA>
-1.57584

>  <SCORE.INTRA.DIHEDRAL>
-2.207

>  <SCORE.INTRA.DIHEDRAL.0>
8.98184

>  <SCORE.INTRA.POLAR>
0

>  <SCORE.INTRA.POLAR.0>
0

>  <SCORE.INTRA.REPUL>
0

>  <SCORE.INTRA.REPUL.0>
0

>  <SCORE.INTRA.VDW>
-0.472336

>  <SCORE.INTRA.VDW.0>
-1.60828

>  <SCORE.INTRA.norm>
-0.0787918

>  <SCORE.RESTR>
0.016493

>  <SCORE.RESTR.CAVITY>
0.016493

>  <SCORE.RESTR.norm>
0.000824651

>  <SCORE.SYSTEM>
-5.19335

>  <SCORE.SYSTEM.CONST>
0

>  <SCORE.SYSTEM.DIHEDRAL>
3.28877

>  <SCORE.SYSTEM.POLAR>
-1.62175

>  <SCORE.SYSTEM.VDW>
-1.32379

>  <SCORE.SYSTEM.norm>
-0.259667

>  <SCORE.heavy>
20

>  <SCORE.norm>
-1.53461

$$$$

  rDOCK(R)          3D
libRbt.so/2013.1/901 2013/11/27
 25 26  0  0  0  0  0  0  0  0999 V2000
   -3.1072   -1.8606   14.6917 C   0  0  0  0  0  0
   -2.7536   -2.6901   13.6105 O   0  0  0  0  0  0
   -1.9834   -0.9586   15.1207 C   0  0  0  0  0  0
   -2.7080    0.3039   15.5931 C   0  0  0  0  0  0
   -2.6067    0.4428   17.0645 N   0  0  0  0  0  0
   -1.9542    1.5195   17.6099 C   0  0  0  0  0  0
   -1.8281    1.6581   18.9895 C   0  0  0  0  0  0
   -2.3882    0.6834   19.8127 C   0  0  0  0  0  0
   -2.2939    0.7622   21.1020 N   0  0  0  0  0  0
   -3.0489   -0.3583   19.2536 N   0  0  0  0  0  0
   -3.1758   -0.4892   17.9067 C   0  0  0  0  0  0
   -3.9028   -1.5823   17.4268 O   0  0  0  0  0  0
   -4.0614    0.2550   15.1747 O   0  0  0  0  0  0
   -4.2156   -0.8723   14.3445 C   0  0  0  0  0  0
   -5.6150   -1.4720   14.5426 C   0  0  0  0  0  0
   -6.6132   -0.5154   14.2482 O   0  0  0  0  0  0
   -8.1031   -0.9868   14.9385 P   0  0  0  0  0  0
   -8.2204   -2.4950   14.9250 O   0  0  0  0  0  0
   -8.2414   -0.4135   16.5271 O   0  0  0  0  0  0
   -9.3596   -0.3336   14.0140 O   0  0  0  0  0  0
   -2.0230   -3.2941   13.9057 H   0  0  0  0  0  0
   -1.7973    1.5475   21.5811 H   0  0  0  0  0  0
   -4.6453   -1.5148   16.7448 H   0  0  0  0  0  0
   -9.0758   -0.8157   16.8777 H   0  0  0  0  0  0
  -10.0881   -0.1667   14.6638 H   0  0  0  0  0  0
  1  2  1  0  0  0
  1  3  1  0  0  0
  3  4  1  0  0  0
  4  5  1  0  0  0
  5  6  1  0  0  0
  6  7  2  0  0  0
  7  8  1  0  0  0
  8  9  2  0  0  0
  8 10  1  0  0  0
 10 11  2  0  0  0
 11 12  1  0  0  0
  4 13  1  0  0  0
 13 14  1  0  0  0
 14 15  1  0  0  0
 15 16  1  0  0  0
 16 17  1  0  0  0
 17 18  2  0  0  0
 17 19  1  0  0  0
 17 20  1  0  0  0
 14  1  1  0  0  0
 11  5  1  0  0  0
  2 21  1  0  0  0
  9 22  1  0  0  0
 12 23  1  0  0  0
 19 24  1  0  0  0
 20 25  1  0  0  0
M  END
>  <CHROM.0>
-67.05879009,79.81752548,-39.62766653,83.71344161,-174.34225048,-2.12521882
-178.97249458,62.94853778,-178.62580363,175.00995824

>  <CHROM.1>
63.48898327,117.07495927,-49.58165673,178.31110952,-161.55034284,-33.64956410
-173.76032082,-148.21859246,-4.66744346,-0.55141844,16.18750875,-0.65499146
0.01589042,-1.97149257

>  <RI>
4.38658e+07

>  <Rbt.Current_Directory>
/extra/banzai2/j5wagner/CELPP/2016_10_17_rdock_implementation/normal_run/tutorialVideo/tutorial_rdock_implementation/full_week_run/4-docking/5wrn/SMCSS_4g6w_docking

>  <Rbt.Executable>
rbdock ($Id: //depot/dev/client3/rdock/2013.1/src/exe/rbdock.cxx#4 $)

>  <Rbt.Library>
libRbt.so (2013.1, Build901 2013/11/27)

>  <Rbt.Parameter_File>
/home/j5wagner/env_00/source/rDock/rDock_2013.1_src//data/scripts/dock.prm

>  <Rbt.Receptor>
/extra/banzai2/j5wagner/CELPP/2016_10_17_rdock_implementation/normal_run/tutorialVideo/tutorial_rdock_implementation/full_week_run/4-docking/5wrn/SMCSS_4g6w_tech_prep/rDockGridGenInput.prm

>  <SCORE>
-28.5652

>  <SCORE.INTER>
-24.5791

>  <SCORE.INTER.CONST>
1

>  <SCORE.INTER.POLAR>
-4.60829

>  <SCORE.INTER.REPUL>
0

>  <SCORE.INTER.ROT>
4

>  <SCORE.INTER.VDW>
-18.3109

>  <SCORE.INTER.norm>
-1.22895

>  <SCORE.INTRA>
1.14476

>  <SCORE.INTRA.DIHEDRAL>
0.33702

>  <SCORE.INTRA.DIHEDRAL.0>
8.98184

>  <SCORE.INTRA.POLAR>
-0.00145295

>  <SCORE.INTRA.POLAR.0>
0

>  <SCORE.INTRA.REPUL>
0

>  <SCORE.INTRA.REPUL.0>
0

>  <SCORE.INTRA.VDW>
0.981192

>  <SCORE.INTRA.VDW.0>
-1.60828

>  <SCORE.INTRA.norm>
0.0572381

>  <SCORE.RESTR>
0

>  <SCORE.RESTR.CAVITY>
0

>  <SCORE.RESTR.norm>
0

>  <SCORE.SYSTEM>
-5.13087

>  <SCORE.SYSTEM.CONST>
0

>  <SCORE.SYSTEM.DIHEDRAL>
6.36354

>  <SCORE.SYSTEM.POLAR>
-2.23868

>  <SCORE.SYSTEM.VDW>
-0.701131

>  <SCORE.SYSTEM.norm>
-0.256544

>  <SCORE.heavy>
20

>  <SCORE.norm>
-1.42826

$$$$

  rDOCK(R)          3D
libRbt.so/2013.1/901 2013/11/27
 25 26  0  0  0  0  0  0  0  0999 V2000
   -3.6483    1.1078   16.5693 C   0  0  0  0  0  0
   -3.2138    2.3289   17.1189 O   0  0  0  0  0  0
   -5.1425    1.0416   16.4152 C   0  0  0  0  0  0
   -5.3280    0.1874   15.1590 C   0  0  0  0  0  0
   -5.8878   -1.1387   15.5089 N   0  0  0  0  0  0
   -5.1223   -2.0491   16.1928 C   0  0  0  0  0  0
   -5.6209   -3.3092   16.5122 C   0  0  0  0  0  0
   -6.9226   -3.6286   16.1318 C   0  0  0  0  0  0
   -7.4318   -4.7890   16.3993 N   0  0  0  0  0  0
   -7.6688   -2.7061   15.4788 N   0  0  0  0  0  0
   -7.1824   -1.4744   15.1726 C   0  0  0  0  0  0
   -8.0401   -0.5808   14.5250 O   0  0  0  0  0  0
   -4.0856    0.0589   14.4888 O   0  0  0  0  0  0
   -3.1549    0.8895   15.1427 C   0  0  0  0  0  0
   -1.7640    0.2408   15.0995 C   0  0  0  0  0  0
   -0.7597    1.1971   15.3732 O   0  0  0  0  0  0
    0.7868    0.5152   15.1243 P   0  0  0  0  0  0
    1.1948   -0.2884   16.3393 O   0  0  0  0  0  0
    0.7963   -0.4757   13.7498 O   0  0  0  0  0  0
    1.9013    1.7672   14.8991 O   0  0  0  0  0  0
   -3.6842    2.4680   17.9822 H   0  0  0  0  0  0
   -6.8979   -5.5331   16.9034 H   0  0  0  0  0  0
   -7.8414    0.4009   14.3916 H   0  0  0  0  0  0
    0.4114    0.0796   13.0255 H   0  0  0  0  0  0
    1.7476    2.3796   15.6621 H   0  0  0  0  0  0
  1  2  1  0  0  0
  1  3  1  0  0  0
  3  4  1  0  0  0
  4  5  1  0  0  0
  5  6  1  0  0  0
  6  7  2  0  0  0
  7  8  1  0  0  0
  8  9  2  0  0  0
  8 10  1  0  0  0
 10 11  2  0  0  0
 11 12  1  0  0  0
  4 13  1  0  0  0
 13 14  1  0  0  0
 14 15  1  0  0  0
 15 16  1  0  0  0
 16 17  1  0  0  0
 17 18  2  0  0  0
 17 19  1  0  0  0
 17 20  1  0  0  0
 14  1  1  0  0  0
 11  5  1  0  0  0
  2 21  1  0  0  0
  9 22  1  0  0  0
 12 23  1  0  0  0
 19 24  1  0  0  0
 20 25  1  0  0  0
M  END
>  <CHROM.0>
46.38354140,79.16414593,-50.37100719,65.68892952,-175.97465258,-179.51856639
-63.82221142,62.65941754,4.67493818,-178.78208171

>  <CHROM.1>
55.46267127,-69.59090392,-10.32725386,-77.86880160,-172.68437296,-81.57996652
51.36075920,50.68714477,-3.40296199,-0.40912890,15.52300054,0.38583433,0.07898551
0.02385871

>  <RI>
4.38658e+07

>  <Rbt.Current_Directory>
/extra/banzai2/j5wagner/CELPP/2016_10_17_rdock_implementation/normal_run/tutorialVideo/tutorial_rdock_implementation/full_week_run/4-docking/5wrn/SMCSS_4g6w_docking

>  <Rbt.Executable>
rbdock ($Id: //depot/dev/client3/rdock/2013.1/src/exe/rbdock.cxx#4 $)

>  <Rbt.Library>
libRbt.so (2013.1, Build901 2013/11/27)

>  <Rbt.Parameter_File>
/home/j5wagner/env_00/source/rDock/rDock_2013.1_src//data/scripts/dock.prm

>  <Rbt.Receptor>
/extra/banzai2/j5wagner/CELPP/2016_10_17_rdock_implementation/normal_run/tutorialVideo/tutorial_rdock_implementation/full_week_run/4-docking/5wrn/SMCSS_4g6w_tech_prep/rDockGridGenInput.prm

>  <SCORE>
-28.1542

>  <SCORE.INTER>
-20.379

>  <SCORE.INTER.CONST>
1

>  <SCORE.INTER.POLAR>
-3.91628

>  <SCORE.INTER.REPUL>
0

>  <SCORE.INTER.ROT>
4

>  <SCORE.INTER.VDW>
-16.4636

>  <SCORE.INTER.norm>
-1.01895

>  <SCORE.INTRA>
-1.8864

>  <SCORE.INTRA.DIHEDRAL>
-4.02991

>  <SCORE.INTRA.DIHEDRAL.0>
8.98184

>  <SCORE.INTRA.POLAR>
0

>  <SCORE.INTRA.POLAR.0>
0

>  <SCORE.INTRA.REPUL>
0

>  <SCORE.INTRA.REPUL.0>
0

>  <SCORE.INTRA.VDW>
0.128559

>  <SCORE.INTRA.VDW.0>
-1.60828

>  <SCORE.INTRA.norm>
-0.0943198

>  <SCORE.RESTR>
0.158021

>  <SCORE.RESTR.CAVITY>
0.158021

>  <SCORE.RESTR.norm>
0.00790105

>  <SCORE.SYSTEM>
-6.0469

>  <SCORE.SYSTEM.CONST>
0

>  <SCORE.SYSTEM.DIHEDRAL>
2.90486

>  <SCORE.SYSTEM.POLAR>
-2.03125

>  <SCORE.SYSTEM.VDW>
-0.593068

>  <SCORE.SYSTEM.norm>
-0.302345

>  <SCORE.heavy>
20

>  <SCORE.norm>
-1.40771

$$$$

  rDOCK(R)          3D
libRbt.so/2013.1/901 2013/11/27
 25 26  0  0  0  0  0  0  0  0999 V2000
   -1.2044   -1.6184   14.2355 C   0  0  0  0  0  0
   -0.0747   -1.8153   13.4188 O   0  0  0  0  0  0
   -2.4448   -2.2531   13.6704 C   0  0  0  0  0  0
   -3.2219   -2.6766   14.9188 C   0  0  0  0  0  0
   -4.4307   -1.8375   15.0895 N   0  0  0  0  0  0
   -5.6659   -2.4252   15.1967 C   0  0  0  0  0  0
   -6.8172   -1.6547   15.3354 C   0  0  0  0  0  0
   -6.6919   -0.2675   15.3737 C   0  0  0  0  0  0
   -7.7319    0.4947   15.4953 N   0  0  0  0  0  0
   -5.4607    0.2905   15.2905 N   0  0  0  0  0  0
   -4.3373   -0.4635   15.1607 C   0  0  0  0  0  0
   -3.1100    0.2038   15.1144 O   0  0  0  0  0  0
   -2.3750   -2.5922   16.0524 O   0  0  0  0  0  0
   -1.0763   -2.2900   15.5988 C   0  0  0  0  0  0
   -0.3658   -1.3960   16.6250 C   0  0  0  0  0  0
   -1.0018   -0.1367   16.7135 O   0  0  0  0  0  0
   -0.1095    0.9038   17.7332 P   0  0  0  0  0  0
    0.1271    0.2342   19.0689 O   0  0  0  0  0  0
    1.3740    1.3167   17.0261 O   0  0  0  0  0  0
   -1.0045    2.3170   17.9824 O   0  0  0  0  0  0
    0.0658   -2.7922   13.3099 H   0  0  0  0  0  0
   -8.7023    0.1123   15.5662 H   0  0  0  0  0  0
   -2.9205    1.0769   15.5866 H   0  0  0  0  0  0
    1.1407    1.7751   16.1796 H   0  0  0  0  0  0
   -1.7721    2.0323   18.5398 H   0  0  0  0  0  0
  1  2  1  0  0  0
  1  3  1  0  0  0
  3  4  1  0  0  0
  4  5  1  0  0  0
  5  6  1  0  0  0
  6  7  2  0  0  0
  7  8  1  0  0  0
  8  9  2  0  0  0
  8 10  1  0  0  0
 10 11  2  0  0  0
 11 12  1  0  0  0
  4 13  1  0  0  0
 13 14  1  0  0  0
 14 15  1  0  0  0
 15 16  1  0  0  0
 16 17  1  0  0  0
 17 18  2  0  0  0
 17 19  1  0  0  0
 17 20  1  0  0  0
 14  1  1  0  0  0
 11  5  1  0  0  0
  2 21  1  0  0  0
  9 22  1  0  0  0
 12 23  1  0  0  0
 19 24  1  0  0  0
 20 25  1  0  0  0
M  END
>  <CHROM.0>
-178.89533774,-57.47214079,-44.62145305,60.62345133,64.86287230,19.53129006
-63.30913308,-175.86430379,14.97036380,-179.92233566

>  <CHROM.1>
-58.24772054,124.88063850,-148.71543186,54.06672668,-174.09663365,-53.40544018
60.41106031,69.23199433,-2.49219185,-0.62140204,15.91609765,-0.40584661,0.10751909
-2.42682623

>  <RI>
4.38658e+07

>  <Rbt.Current_Directory>
/extra/banzai2/j5wagner/CELPP/2016_10_17_rdock_implementation/normal_run/tutorialVideo/tutorial_rdock_implementation/full_week_run/4-docking/5wrn/SMCSS_4g6w_docking

>  <Rbt.Executable>
rbdock ($Id: //depot/dev/client3/rdock/2013.1/src/exe/rbdock.cxx#4 $)

>  <Rbt.Library>
libRbt.so (2013.1, Build901 2013/11/27)

>  <Rbt.Parameter_File>
/home/j5wagner/env_00/source/rDock/rDock_2013.1_src//data/scripts/dock.prm

>  <Rbt.Receptor>
/extra/banzai2/j5wagner/CELPP/2016_10_17_rdock_implementation/normal_run/tutorialVideo/tutorial_rdock_implementation/full_week_run/4-docking/5wrn/SMCSS_4g6w_tech_prep/rDockGridGenInput.prm

>  <SCORE>
-25.8432

>  <SCORE.INTER>
-18.9104

>  <SCORE.INTER.CONST>
1

>  <SCORE.INTER.POLAR>
-3.93582

>  <SCORE.INTER.REPUL>
0

>  <SCORE.INTER.ROT>
4

>  <SCORE.INTER.VDW>
-14.9286

>  <SCORE.INTER.norm>
-0.94552

>  <SCORE.INTRA>
-2.36131

>  <SCORE.INTRA.DIHEDRAL>
-4.67767

>  <SCORE.INTRA.DIHEDRAL.0>
8.98184

>  <SCORE.INTRA.POLAR>
0

>  <SCORE.INTRA.POLAR.0>
0

>  <SCORE.INTRA.REPUL>
0

>  <SCORE.INTRA.REPUL.0>
0

>  <SCORE.INTRA.VDW>
-0.0224712

>  <SCORE.INTRA.VDW.0>
-1.60828

>  <SCORE.INTRA.norm>
-0.118065

>  <SCORE.RESTR>
0.23079

>  <SCORE.RESTR.CAVITY>
0.23079

>  <SCORE.RESTR.norm>
0.0115395

>  <SCORE.SYSTEM>
-4.80232

>  <SCORE.SYSTEM.CONST>
0

>  <SCORE.SYSTEM.DIHEDRAL>
2.20793

>  <SCORE.SYSTEM.POLAR>
-1.62369

>  <SCORE.SYSTEM.VDW>
-0.385756

>  <SCORE.SYSTEM.norm>
-0.240116

>  <SCORE.heavy>
20

>  <SCORE.norm>
-1.29216

$$$$

  rDOCK(R)          3D
libRbt.so/2013.1/901 2013/11/27
 25 26  0  0  0  0  0  0  0  0999 V2000
   -0.2281   -0.3146   15.3038 C   0  0  0  0  0  0
    1.1099   -0.2421   14.8721 O   0  0  0  0  0  0
   -0.9958   -1.4158   14.6267 C   0  0  0  0  0  0
   -1.9782   -1.8739   15.7070 C   0  0  0  0  0  0
   -3.3621   -1.4816   15.3528 N   0  0  0  0  0  0
   -4.3656   -2.4173   15.3623 C   0  0  0  0  0  0
   -5.6687   -2.0750   15.0114 C   0  0  0  0  0  0
   -5.9403   -0.7550   14.6576 C   0  0  0  0  0  0
   -7.1342   -0.3861   14.3173 N   0  0  0  0  0  0
   -4.9397    0.1573   14.6785 N   0  0  0  0  0  0
   -3.6692   -0.1773   15.0267 C   0  0  0  0  0  0
   -2.7127    0.8416   15.0482 O   0  0  0  0  0  0
   -1.5939   -1.3260   16.9566 O   0  0  0  0  0  0
   -0.3572   -0.6755   16.7800 C   0  0  0  0  0  0
   -0.2883    0.5588   17.6905 C   0  0  0  0  0  0
   -0.5892    0.2096   19.0268 O   0  0  0  0  0  0
   -2.1877    0.6733   19.4115 P   0  0  0  0  0  0
   -2.4075    0.5670   20.9045 O   0  0  0  0  0  0
   -2.4981    2.2573   18.8960 O   0  0  0  0  0  0
   -3.2595   -0.3733   18.6265 O   0  0  0  0  0  0
    1.1188    0.0885   13.9359 H   0  0  0  0  0  0
   -7.9401   -1.0515   14.2886 H   0  0  0  0  0  0
   -2.2710    1.1877   15.8886 H   0  0  0  0  0  0
   -1.8217    2.8177   19.3537 H   0  0  0  0  0  0
   -2.8100   -0.5983   17.7732 H   0  0  0  0  0  0
  1  2  1  0  0  0
  1  3  1  0  0  0
  3  4  1  0  0  0
  4  5  1  0  0  0
  5  6  1  0  0  0
  6  7  2  0  0  0
  7  8  1  0  0  0
  8  9  2  0  0  0
  8 10  1  0  0  0
 10 11  2  0  0  0
 11 12  1  0  0  0
  4 13  1  0  0  0
 13 14  1  0  0  0
 14 15  1  0  0  0
 15 16  1  0  0  0
 16 17  1  0  0  0
 17 18  2  0  0  0
 17 19  1  0  0  0
 17 20  1  0  0  0
 14  1  1  0  0  0
 11  5  1  0  0  0
  2 21  1  0  0  0
  9 22  1  0  0  0
 12 23  1  0  0  0
 19 24  1  0  0  0
 20 25  1  0  0  0
M  END
>  <CHROM.0>
-54.44285861,73.66576255,-46.92879351,66.03480228,-175.44524190,15.51563012
176.97127497,-61.06602002,-173.33317329,69.43255926

>  <CHROM.1>
70.15281252,128.32254621,-67.32843742,172.16283269,-102.37456174,-168.16996933
-58.17978520,-33.80981139,-2.56005901,-0.28868206,16.66992551,-0.85707326
-0.00757927,-1.92255346

>  <RI>
4.38658e+07

>  <Rbt.Current_Directory>
/extra/banzai2/j5wagner/CELPP/2016_10_17_rdock_implementation/normal_run/tutorialVideo/tutorial_rdock_implementation/full_week_run/4-docking/5wrn/SMCSS_4g6w_docking

>  <Rbt.Executable>
rbdock ($Id: //depot/dev/client3/rdock/2013.1/src/exe/rbdock.cxx#4 $)

>  <Rbt.Library>
libRbt.so (2013.1, Build901 2013/11/27)

>  <Rbt.Parameter_File>
/home/j5wagner/env_00/source/rDock/rDock_2013.1_src//data/scripts/dock.prm

>  <Rbt.Receptor>
/extra/banzai2/j5wagner/CELPP/2016_10_17_rdock_implementation/normal_run/tutorialVideo/tutorial_rdock_implementation/full_week_run/4-docking/5wrn/SMCSS_4g6w_tech_prep/rDockGridGenInput.prm

>  <SCORE>
-25.8338

>  <SCORE.INTER>
-21.0415

>  <SCORE.INTER.CONST>
1

>  <SCORE.INTER.POLAR>
-4.19632

>  <SCORE.INTER.REPUL>
0.0198996

>  <SCORE.INTER.ROT>
4

>  <SCORE.INTER.VDW>
-16.2735

>  <SCORE.INTER.norm>
-1.05207

>  <SCORE.INTRA>
-1.39669

>  <SCORE.INTRA.DIHEDRAL>
5.33699

>  <SCORE.INTRA.DIHEDRAL.0>
8.98184

>  <SCORE.INTRA.POLAR>
-0.958963

>  <SCORE.INTRA.POLAR.0>
0

>  <SCORE.INTRA.REPUL>
0

>  <SCORE.INTRA.REPUL.0>
0

>  <SCORE.INTRA.VDW>
-0.804711

>  <SCORE.INTRA.VDW.0>
-1.60828

>  <SCORE.INTRA.norm>
-0.0698345

>  <SCORE.RESTR>
0.00488876

>  <SCORE.RESTR.CAVITY>
0.00488876

>  <SCORE.RESTR.norm>
0.000244438

>  <SCORE.SYSTEM>
-3.4005

>  <SCORE.SYSTEM.CONST>
0

>  <SCORE.SYSTEM.DIHEDRAL>
6.70813

>  <SCORE.SYSTEM.POLAR>
-1.62877

>  <SCORE.SYSTEM.VDW>
-1.21675

>  <SCORE.SYSTEM.norm>
-0.170025

>  <SCORE.heavy>
20

>  <SCORE.norm>
-1.29169

$$$$

  rDOCK(R)          3D
libRbt.so/2013.1/901 2013/11/27
 25 26  0  0  0  0  0  0  0  0999 V2000
   -1.5215   -1.7947   16.0448 C   0  0  0  0  0  0
   -0.3088   -2.4126   15.6848 O   0  0  0  0  0  0
   -2.6956   -2.7298   15.9578 C   0  0  0  0  0  0
   -3.6116   -2.2485   17.0854 C   0  0  0  0  0  0
   -4.8250   -1.6040   16.5316 N   0  0  0  0  0  0
   -6.0013   -2.3059   16.4538 C   0  0  0  0  0  0
   -7.1478   -1.7269   15.9164 C   0  0  0  0  0  0
   -7.0824   -0.4103   15.4650 C   0  0  0  0  0  0
   -8.1185    0.1727   14.9514 N   0  0  0  0  0  0
   -5.9174    0.2717   15.5738 N   0  0  0  0  0  0
   -4.8006   -0.2933   16.1037 C   0  0  0  0  0  0
   -3.6554    0.5020   16.2020 O   0  0  0  0  0  0
   -2.8967   -1.3587   17.9260 O   0  0  0  0  0  0
   -1.5528   -1.3533   17.5044 C   0  0  0  0  0  0
   -0.9548    0.0467   17.7033 C   0  0  0  0  0  0
   -0.6969    0.2883   19.0720 O   0  0  0  0  0  0
   -2.0208    1.0970   19.7874 P   0  0  0  0  0  0
   -2.8848    0.1051   20.5346 O   0  0  0  0  0  0
   -1.4886    2.3082   20.8462 O   0  0  0  0  0  0
   -2.9444    1.8120   18.5643 O   0  0  0  0  0  0
   -0.3628   -2.6733   14.7282 H   0  0  0  0  0  0
   -9.0402   -0.3098   14.8486 H   0  0  0  0  0  0
   -3.4198    1.0604   17.0106 H   0  0  0  0  0  0
   -1.0462    1.8276   21.5908 H   0  0  0  0  0  0
   -3.8414    1.9333   18.9662 H   0  0  0  0  0  0
  1  2  1  0  0  0
  1  3  1  0  0  0
  3  4  1  0  0  0
  4  5  1  0  0  0
  5  6  1  0  0  0
  6  7  2  0  0  0
  7  8  1  0  0  0
  8  9  2  0  0  0
  8 10  1  0  0  0
 10 11  2  0  0  0
 11 12  1  0  0  0
  4 13  1  0  0  0
 13 14  1  0  0  0
 14 15  1  0  0  0
 15 16  1  0  0  0
 16 17  1  0  0  0
 17 18  2  0  0  0
 17 19  1  0  0  0
 17 20  1  0  0  0
 14  1  1  0  0  0
 11  5  1  0  0  0
  2 21  1  0  0  0
  9 22  1  0  0  0
 12 23  1  0  0  0
 19 24  1  0  0  0
 20 25  1  0  0  0
M  END
>  <CHROM.0>
-56.39669055,72.58908711,-49.84803836,-61.34031533,59.26307630,13.47023103
70.48444417,-177.35687534,-179.48458566,12.63686309

>  <CHROM.1>
64.09919227,99.54354865,-88.48064585,-165.58429504,-94.07753271,99.44859431
-66.81444890,157.83897296,-3.36842259,-0.42105109,17.42516453,-0.65751573
0.29161652,-2.34859869

>  <RI>
4.38658e+07

>  <Rbt.Current_Directory>
/extra/banzai2/j5wagner/CELPP/2016_10_17_rdock_implementation/normal_run/tutorialVideo/tutorial_rdock_implementation/full_week_run/4-docking/5wrn/SMCSS_4g6w_docking

>  <Rbt.Executable>
rbdock ($Id: //depot/dev/client3/rdock/2013.1/src/exe/rbdock.cxx#4 $)

>  <Rbt.Library>
libRbt.so (2013.1, Build901 2013/11/27)

>  <Rbt.Parameter_File>
/home/j5wagner/env_00/source/rDock/rDock_2013.1_src//data/scripts/dock.prm

>  <Rbt.Receptor>
/extra/banzai2/j5wagner/CELPP/2016_10_17_rdock_implementation/normal_run/tutorialVideo/tutorial_rdock_implementation/full_week_run/4-docking/5wrn/SMCSS_4g6w_tech_prep/rDockGridGenInput.prm

>  <SCORE>
-25.7986

>  <SCORE.INTER>
-22.848

>  <SCORE.INTER.CONST>
1

>  <SCORE.INTER.POLAR>
-4.44937

>  <SCORE.INTER.REPUL>
0.0146791

>  <SCORE.INTER.ROT>
4

>  <SCORE.INTER.VDW>
-17.1936

>  <SCORE.INTER.norm>
-1.1424

>  <SCORE.INTRA>
-1.65047

>  <SCORE.INTRA.DIHEDRAL>
5.96465

>  <SCORE.INTRA.DIHEDRAL.0>
8.98184

>  <SCORE.INTRA.POLAR>
-1

>  <SCORE.INTRA.POLAR.0>
0

>  <SCORE.INTRA.REPUL>
0

>  <SCORE.INTRA.REPUL.0>
0

>  <SCORE.INTRA.VDW>
-1.2328

>  <SCORE.INTRA.VDW.0>
-1.60828

>  <SCORE.INTRA.norm>
-0.0825235

>  <SCORE.RESTR>
0

>  <SCORE.RESTR.CAVITY>
0

>  <SCORE.RESTR.norm>
0

>  <SCORE.SYSTEM>
-1.30007

>  <SCORE.SYSTEM.CONST>
0

>  <SCORE.SYSTEM.DIHEDRAL>
2.38701

>  <SCORE.SYSTEM.POLAR>
-1.0399

>  <SCORE.SYSTEM.REPUL>
0.272834

>  <SCORE.SYSTEM.VDW>
-0.322088

>  <SCORE.SYSTEM.norm>
-0.0650035

>  <SCORE.heavy>
20

>  <SCORE.norm>
-1.28993

$$$$

  rDOCK(R)          3D
libRbt.so/2013.1/901 2013/11/27
 25 26  0  0  0  0  0  0  0  0999 V2000
   -3.7320   -1.4737   15.8141 C   0  0  0  0  0  0
   -4.0386   -2.5447   14.9534 O   0  0  0  0  0  0
   -2.2579   -1.1843   15.8756 C   0  0  0  0  0  0
   -2.2063    0.3317   16.0785 C   0  0  0  0  0  0
   -1.7371    0.6586   17.4450 N   0  0  0  0  0  0
   -2.6409    1.0042   18.4178 C   0  0  0  0  0  0
   -2.2198    1.3367   19.7025 C   0  0  0  0  0  0
   -0.8565    1.3027   19.9883 C   0  0  0  0  0  0
   -0.4123    1.6087   21.1657 N   0  0  0  0  0  0
    0.0159    0.9351   19.0198 N   0  0  0  0  0  0
   -0.3974    0.6055   17.7677 C   0  0  0  0  0  0
    0.5763    0.2092   16.8465 O   0  0  0  0  0  0
   -3.4880    0.8842   15.8306 O   0  0  0  0  0  0
   -4.3142   -0.1459   15.3409 C   0  0  0  0  0  0
   -5.7529    0.0684   15.8324 C   0  0  0  0  0  0
   -6.6800   -0.2548   14.8154 O   0  0  0  0  0  0
   -7.7643   -1.4547   15.3660 P   0  0  0  0  0  0
   -8.9947   -1.4771   14.4861 O   0  0  0  0  0  0
   -7.0283   -2.9809   15.3644 O   0  0  0  0  0  0
   -8.2315   -1.0785   16.9473 O   0  0  0  0  0  0
   -3.7359   -2.3066   14.0382 H   0  0  0  0  0  0
   -1.0452    1.8954   21.9469 H   0  0  0  0  0  0
    1.0980    0.8475   16.2621 H   0  0  0  0  0  0
   -6.0772   -2.8119   15.5832 H   0  0  0  0  0  0
   -9.1956   -0.8626   16.8790 H   0  0  0  0  0  0
  1  2  1  0  0  0
  1  3  1  0  0  0
  3  4  1  0  0  0
  4  5  1  0  0  0
  5  6  1  0  0  0
  6  7  2  0  0  0
  7  8  1  0  0  0
  8  9  2  0  0  0
  8 10  1  0  0  0
 10 11  2  0  0  0
 11 12  1  0  0  0
  4 13  1  0  0  0
 13 14  1  0  0  0
 14 15  1  0  0  0
 15 16  1  0  0  0
 16 17  1  0  0  0
 17 18  2  0  0  0
 17 19  1  0  0  0
 17 20  1  0  0  0
 14  1  1  0  0  0
 11  5  1  0  0  0
  2 21  1  0  0  0
  9 22  1  0  0  0
 12 23  1  0  0  0
 19 24  1  0  0  0
 20 25  1  0  0  0
M  END
>  <CHROM.0>
-52.81557278,81.81240749,-28.70152607,61.12524581,67.00629640,-173.75701108
-179.16649058,-66.80463440,5.57329902,-163.64948419

>  <CHROM.1>
-60.71212050,-100.32562930,93.47192000,-99.35128423,122.99153673,161.68945431
33.45749595,113.22483110,-3.97071785,-0.32021775,16.68568087,-2.58698710
0.07656434,1.08482650

>  <RI>
4.38658e+07

>  <Rbt.Current_Directory>
/extra/banzai2/j5wagner/CELPP/2016_10_17_rdock_implementation/normal_run/tutorialVideo/tutorial_rdock_implementation/full_week_run/4-docking/5wrn/SMCSS_4g6w_docking

>  <Rbt.Executable>
rbdock ($Id: //depot/dev/client3/rdock/2013.1/src/exe/rbdock.cxx#4 $)

>  <Rbt.Library>
libRbt.so (2013.1, Build901 2013/11/27)

>  <Rbt.Parameter_File>
/home/j5wagner/env_00/source/rDock/rDock_2013.1_src//data/scripts/dock.prm

>  <Rbt.Receptor>
/extra/banzai2/j5wagner/CELPP/2016_10_17_rdock_implementation/normal_run/tutorialVideo/tutorial_rdock_implementation/full_week_run/4-docking/5wrn/SMCSS_4g6w_tech_prep/rDockGridGenInput.prm

>  <SCORE>
-25.4474

>  <SCORE.INTER>
-23.384

>  <SCORE.INTER.CONST>
1

>  <SCORE.INTER.POLAR>
-3.55157

>  <SCORE.INTER.REPUL>
0.0345406

>  <SCORE.INTER.ROT>
4

>  <SCORE.INTER.VDW>
-20.8814

>  <SCORE.INTER.norm>
-1.1692

>  <SCORE.INTRA>
2.78782

>  <SCORE.INTRA.DIHEDRAL>
13.0887

>  <SCORE.INTRA.DIHEDRAL.0>
8.98184

>  <SCORE.INTRA.POLAR>
-0.999089

>  <SCORE.INTRA.POLAR.0>
0

>  <SCORE.INTRA.REPUL>
0

>  <SCORE.INTRA.REPUL.0>
0

>  <SCORE.INTRA.VDW>
-0.359647

>  <SCORE.INTRA.VDW.0>
-1.60828

>  <SCORE.INTRA.norm>
0.139391

>  <SCORE.RESTR>
0

>  <SCORE.RESTR.CAVITY>
0

>  <SCORE.RESTR.norm>
0

>  <SCORE.SYSTEM>
-4.85126

>  <SCORE.SYSTEM.CONST>
0

>  <SCORE.SYSTEM.DIHEDRAL>
6.93765

>  <SCORE.SYSTEM.POLAR>
-2.16839

>  <SCORE.SYSTEM.VDW>
-0.947559

>  <SCORE.SYSTEM.norm>
-0.242563

>  <SCORE.heavy>
20

>  <SCORE.norm>
-1.27237

$$$$

  rDOCK(R)          3D
libRbt.so/2013.1/901 2013/11/27
 25 26  0  0  0  0  0  0  0  0999 V2000
   -1.6036   -1.5277   13.7579 C   0  0  0  0  0  0
   -0.4881   -1.5857   12.9011 O   0  0  0  0  0  0
   -2.7622   -2.3438   13.2558 C   0  0  0  0  0  0
   -3.4258   -2.8396   14.5426 C   0  0  0  0  0  0
   -4.7335   -2.1736   14.7443 N   0  0  0  0  0  0
   -4.8176   -0.8043   14.7254 C   0  0  0  0  0  0
   -6.0326   -0.1574   14.9348 C   0  0  0  0  0  0
   -7.1711   -0.9296   15.1556 C   0  0  0  0  0  0
   -8.3242   -0.3771   15.3615 N   0  0  0  0  0  0
   -7.0695   -2.2801   15.1459 N   0  0  0  0  0  0
   -5.8836   -2.9101   14.9358 C   0  0  0  0  0  0
   -5.8866   -4.3076   14.9130 O   0  0  0  0  0  0
   -2.5582   -2.6086   15.6395 O   0  0  0  0  0  0
   -1.3324   -2.1396   15.1284 C   0  0  0  0  0  0
   -0.7177   -1.1289   16.1071 C   0  0  0  0  0  0
   -1.5669   -0.0102   16.2667 O   0  0  0  0  0  0
   -2.3314   -0.0637   17.7935 P   0  0  0  0  0  0
   -1.3363    0.2860   18.8781 O   0  0  0  0  0  0
   -3.6436    1.0068   17.8502 O   0  0  0  0  0  0
   -2.8995   -1.6341   18.0604 O   0  0  0  0  0  0
   -0.7670   -1.2671   12.0029 H   0  0  0  0  0  0
   -8.4548    0.6600   15.3755 H   0  0  0  0  0  0
   -5.0762   -4.8735   14.7031 H   0  0  0  0  0  0
   -3.8621    1.1008   18.8117 H   0  0  0  0  0  0
   -3.0739   -1.9947   17.1546 H   0  0  0  0  0  0
  1  2  1  0  0  0
  1  3  1  0  0  0
  3  4  1  0  0  0
  4  5  1  0  0  0
  5  6  1  0  0  0
  6  7  2  0  0  0
  7  8  1  0  0  0
  8  9  2  0  0  0
  8 10  1  0  0  0
 10 11  2  0  0  0
 11 12  1  0  0  0
  4 13  1  0  0  0
 13 14  1  0  0  0
 14 15  1  0  0  0
 15 16  1  0  0  0
 16 17  1  0  0  0
 17 18  2  0  0  0
 17 19  1  0  0  0
 17 20  1  0  0  0
 14  1  1  0  0  0
 11  5  1  0  0  0
  2 21  1  0  0  0
  9 22  1  0  0  0
 12 23  1  0  0  0
 19 24  1  0  0  0
 20 25  1  0  0  0
M  END
>  <CHROM.0>
-178.21730827,-61.99971369,-55.93295501,178.63978472,-173.55840213,-7.07698006
-63.04383948,-62.93963361,2.51154447,177.16143127

>  <CHROM.1>
57.89974239,-53.27594785,-3.84371125,58.15730309,106.42029666,73.67501199
-164.72253746,-28.12397696,-3.57838607,-1.33390615,15.69187684,-0.40906156
-0.01869081,-2.16858265

>  <RI>
4.38658e+07

>  <Rbt.Current_Directory>
/extra/banzai2/j5wagner/CELPP/2016_10_17_rdock_implementation/normal_run/tutorialVideo/tutorial_rdock_implementation/full_week_run/4-docking/5wrn/SMCSS_4g6w_docking

>  <Rbt.Executable>
rbdock ($Id: //depot/dev/client3/rdock/2013.1/src/exe/rbdock.cxx#4 $)

>  <Rbt.Library>
libRbt.so (2013.1, Build901 2013/11/27)

>  <Rbt.Parameter_File>
/home/j5wagner/env_00/source/rDock/rDock_2013.1_src//data/scripts/dock.prm

>  <Rbt.Receptor>
/extra/banzai2/j5wagner/CELPP/2016_10_17_rdock_implementation/normal_run/tutorialVideo/tutorial_rdock_implementation/full_week_run/4-docking/5wrn/SMCSS_4g6w_tech_prep/rDockGridGenInput.prm

>  <SCORE>
-25.0543

>  <SCORE.INTER>
-18.8821

>  <SCORE.INTER.CONST>
1

>  <SCORE.INTER.POLAR>
-3.81979

>  <SCORE.INTER.REPUL>
0.08883

>  <SCORE.INTER.ROT>
4

>  <SCORE.INTER.VDW>
-15.739

>  <SCORE.INTER.norm>
-0.944106

>  <SCORE.INTRA>
-3.26389

>  <SCORE.INTRA.DIHEDRAL>
1.91932

>  <SCORE.INTRA.DIHEDRAL.0>
8.98184

>  <SCORE.INTRA.POLAR>
-1

>  <SCORE.INTRA.POLAR.0>
0

>  <SCORE.INTRA.REPUL>
0

>  <SCORE.INTRA.REPUL.0>
0

>  <SCORE.INTRA.VDW>
-0.823548

>  <SCORE.INTRA.VDW.0>
-1.60828

>  <SCORE.INTRA.norm>
-0.163194

>  <SCORE.RESTR>
0.665297

>  <SCORE.RESTR.CAVITY>
0.665297

>  <SCORE.RESTR.norm>
0.0332648

>  <SCORE.SYSTEM>
-3.57362

>  <SCORE.SYSTEM.CONST>
0

>  <SCORE.SYSTEM.DIHEDRAL>
0.415092

>  <SCORE.SYSTEM.POLAR>
-1.09995

>  <SCORE.SYSTEM.VDW>
-0.0413527

>  <SCORE.SYSTEM.norm>
-0.178681

>  <SCORE.heavy>
20

>  <SCORE.norm>
-1.25272

$$$$

  rDOCK(R)          3D
libRbt.so/2013.1/901 2013/11/27
 25 26  0  0  0  0  0  0  0  0999 V2000
   -3.2347   -1.5305   15.9182 C   0  0  0  0  0  0
   -3.3659   -2.5842   14.9939 O   0  0  0  0  0  0
   -1.7991   -1.1959   16.2143 C   0  0  0  0  0  0
   -1.8345    0.3141   16.4605 C   0  0  0  0  0  0
   -1.5934    0.6144   17.8909 N   0  0  0  0  0  0
   -2.6348    0.5877   18.7839 C   0  0  0  0  0  0
   -2.4345    0.8884   20.1285 C   0  0  0  0  0  0
   -1.1481    1.2095   20.5567 C   0  0  0  0  0  0
   -0.9094    1.5027   21.7953 N   0  0  0  0  0  0
   -0.1306    1.2061   19.6629 N   0  0  0  0  0  0
   -0.3269    0.9069   18.3516 C   0  0  0  0  0  0
    0.7916    0.8995   17.5135 O   0  0  0  0  0  0
   -3.0819    0.8325   16.0310 O   0  0  0  0  0  0
   -3.7850   -0.2083   15.3937 C   0  0  0  0  0  0
   -5.2890   -0.0552   15.6616 C   0  0  0  0  0  0
   -5.9949   -1.1903   15.2018 O   0  0  0  0  0  0
   -7.6615   -1.0242   15.5387 P   0  0  0  0  0  0
   -7.8957   -1.1214   17.0301 O   0  0  0  0  0  0
   -8.2506    0.4551   14.9593 O   0  0  0  0  0  0
   -8.4970   -2.2792   14.7724 O   0  0  0  0  0  0
   -3.0280   -3.4160   15.4180 H   0  0  0  0  0  0
   -1.6596    1.5161   22.5232 H   0  0  0  0  0  0
    0.7516    0.7491   16.5150 H   0  0  0  0  0  0
   -7.8065    1.1469   15.5118 H   0  0  0  0  0  0
   -9.4522   -2.0301   14.8532 H   0  0  0  0  0  0
  1  2  1  0  0  0
  1  3  1  0  0  0
  3  4  1  0  0  0
  4  5  1  0  0  0
  5  6  1  0  0  0
  6  7  2  0  0  0
  7  8  1  0  0  0
  8  9  2  0  0  0
  8 10  1  0  0  0
 10 11  2  0  0  0
 11 12  1  0  0  0
  4 13  1  0  0  0
 13 14  1  0  0  0
 14 15  1  0  0  0
 15 16  1  0  0  0
 16 17  1  0  0  0
 17 18  2  0  0  0
 17 19  1  0  0  0
 17 20  1  0  0  0
 14  1  1  0  0  0
 11  5  1  0  0  0
  2 21  1  0  0  0
  9 22  1  0  0  0
 12 23  1  0  0  0
 19 24  1  0  0  0
 20 25  1  0  0  0
M  END
>  <CHROM.0>
52.12732224,89.62719755,-48.38264573,66.40381259,-55.70419788,8.74145565
67.15375526,-62.53603057,17.72692757,-16.43425651

>  <CHROM.1>
66.88826868,-84.82437851,4.56527515,-51.57856669,178.66984472,-69.53296195
-66.91717271,-169.22578879,-3.82374446,-0.19041030,16.95647110,-2.56044232
0.03827056,1.13873766

>  <RI>
4.38658e+07

>  <Rbt.Current_Directory>
/extra/banzai2/j5wagner/CELPP/2016_10_17_rdock_implementation/normal_run/tutorialVideo/tutorial_rdock_implementation/full_week_run/4-docking/5wrn/SMCSS_4g6w_docking

>  <Rbt.Executable>
rbdock ($Id: //depot/dev/client3/rdock/2013.1/src/exe/rbdock.cxx#4 $)

>  <Rbt.Library>
libRbt.so (2013.1, Build901 2013/11/27)

>  <Rbt.Parameter_File>
/home/j5wagner/env_00/source/rDock/rDock_2013.1_src//data/scripts/dock.prm

>  <Rbt.Receptor>
/extra/banzai2/j5wagner/CELPP/2016_10_17_rdock_implementation/normal_run/tutorialVideo/tutorial_rdock_implementation/full_week_run/4-docking/5wrn/SMCSS_4g6w_tech_prep/rDockGridGenInput.prm

>  <SCORE>
-24.7426

>  <SCORE.INTER>
-19.4236

>  <SCORE.INTER.CONST>
1

>  <SCORE.INTER.POLAR>
-3.11413

>  <SCORE.INTER.REPUL>
0

>  <SCORE.INTER.ROT>
4

>  <SCORE.INTER.VDW>
-18.2356

>  <SCORE.INTER.norm>
-0.971182

>  <SCORE.INTRA>
-2.68563

>  <SCORE.INTRA.DIHEDRAL>
-5.57006

>  <SCORE.INTRA.DIHEDRAL.0>
8.98184

>  <SCORE.INTRA.POLAR>
0

>  <SCORE.INTRA.POLAR.0>
0

>  <SCORE.INTRA.REPUL>
0

>  <SCORE.INTRA.REPUL.0>
0

>  <SCORE.INTRA.VDW>
0.0994034

>  <SCORE.INTRA.VDW.0>
-1.60828

>  <SCORE.INTRA.norm>
-0.134281

>  <SCORE.RESTR>
0

>  <SCORE.RESTR.CAVITY>
0

>  <SCORE.RESTR.norm>
0

>  <SCORE.SYSTEM>
-2.63328

>  <SCORE.SYSTEM.CONST>
0

>  <SCORE.SYSTEM.DIHEDRAL>
5.76829

>  <SCORE.SYSTEM.POLAR>
-1.89385

>  <SCORE.SYSTEM.REPUL>
0.272834

>  <SCORE.SYSTEM.VDW>
-0.44252

>  <SCORE.SYSTEM.norm>
-0.131664

>  <SCORE.heavy>
20

>  <SCORE.norm>
-1.23713

$$$$

  rDOCK(R)          3D
libRbt.so/2013.1/901 2013/11/27
 25 26  0  0  0  0  0  0  0  0999 V2000
   -3.5558   -2.1162   15.3098 C   0  0  0  0  0  0
   -3.9969   -3.2997   14.6879 O   0  0  0  0  0  0
   -2.0574   -2.0347   15.4022 C   0  0  0  0  0  0
   -1.7787   -0.5358   15.2691 C   0  0  0  0  0  0
   -1.3078    0.0228   16.5577 N   0  0  0  0  0  0
   -2.2150    0.4523   17.4932 C   0  0  0  0  0  0
   -1.7940    1.0011   18.7015 C   0  0  0  0  0  0
   -0.4265    1.0982   18.9505 C   0  0  0  0  0  0
    0.0174    1.6062   20.0560 N   0  0  0  0  0  0
    0.4509    0.6458   18.0234 N   0  0  0  0  0  0
    0.0381    0.1053   16.8466 C   0  0  0  0  0  0
    1.0194   -0.3619   15.9677 O   0  0  0  0  0  0
   -2.9513    0.1236   14.8223 O   0  0  0  0  0  0
   -3.9109   -0.8615   14.5186 C   0  0  0  0  0  0
   -5.3140   -0.3371   14.8557 C   0  0  0  0  0  0
   -6.2744   -1.3664   14.7283 O   0  0  0  0  0  0
   -7.7515   -0.8855   15.4393 P   0  0  0  0  0  0
   -7.8489   -1.4389   16.8439 O   0  0  0  0  0  0
   -7.8827    0.8035   15.4764 O   0  0  0  0  0  0
   -9.0250   -1.5092   14.5177 O   0  0  0  0  0  0
   -4.9768   -3.2306   14.5438 H   0  0  0  0  0  0
   -0.6190    1.9661   20.8033 H   0  0  0  0  0  0
    0.8286   -0.7186   15.0417 H   0  0  0  0  0  0
   -7.1749    1.1063   16.0996 H   0  0  0  0  0  0
   -9.8393   -1.1020   14.9077 H   0  0  0  0  0  0
  1  2  1  0  0  0
  1  3  1  0  0  0
  3  4  1  0  0  0
  4  5  1  0  0  0
  5  6  1  0  0  0
  6  7  2  0  0  0
  7  8  1  0  0  0
  8  9  2  0  0  0
  8 10  1  0  0  0
 10 11  2  0  0  0
 11 12  1  0  0  0
  4 13  1  0  0  0
 13 14  1  0  0  0
 14 15  1  0  0  0
 15 16  1  0  0  0
 16 17  1  0  0  0
 17 18  2  0  0  0
 17 19  1  0  0  0
 17 20  1  0  0  0
 14  1  1  0  0  0
 11  5  1  0  0  0
  2 21  1  0  0  0
  9 22  1  0  0  0
 12 23  1  0  0  0
 19 24  1  0  0  0
 20 25  1  0  0  0
M  END
>  <CHROM.0>
-60.61753104,174.36378102,-50.41861412,-65.52771855,-59.05150310,2.89054480
172.83335295,-64.14875116,-176.43910376,48.07641914

>  <CHROM.1>
-172.05496641,-86.51753411,5.14914717,-52.42120728,167.05365499,-97.12160317
-66.19883584,-172.87766371,-3.72970915,-0.50773192,16.11622073,-2.76671347
-0.04306617,0.91419228

>  <RI>
4.38658e+07

>  <Rbt.Current_Directory>
/extra/banzai2/j5wagner/CELPP/2016_10_17_rdock_implementation/normal_run/tutorialVideo/tutorial_rdock_implementation/full_week_run/4-docking/5wrn/SMCSS_4g6w_docking

>  <Rbt.Executable>
rbdock ($Id: //depot/dev/client3/rdock/2013.1/src/exe/rbdock.cxx#4 $)

>  <Rbt.Library>
libRbt.so (2013.1, Build901 2013/11/27)

>  <Rbt.Parameter_File>
/home/j5wagner/env_00/source/rDock/rDock_2013.1_src//data/scripts/dock.prm

>  <Rbt.Receptor>
/extra/banzai2/j5wagner/CELPP/2016_10_17_rdock_implementation/normal_run/tutorialVideo/tutorial_rdock_implementation/full_week_run/4-docking/5wrn/SMCSS_4g6w_tech_prep/rDockGridGenInput.prm

>  <SCORE>
-24.7307

>  <SCORE.INTER>
-20.6795

>  <SCORE.INTER.CONST>
1

>  <SCORE.INTER.POLAR>
-3.51215

>  <SCORE.INTER.REPUL>
0.127397

>  <SCORE.INTER.ROT>
4

>  <SCORE.INTER.VDW>
-18.7752

>  <SCORE.INTER.norm>
-1.03398

>  <SCORE.INTRA>
-2.61457

>  <SCORE.INTRA.DIHEDRAL>
-3.40543

>  <SCORE.INTRA.DIHEDRAL.0>
8.98184

>  <SCORE.INTRA.POLAR>
-0.34619

>  <SCORE.INTRA.POLAR.0>
0

>  <SCORE.INTRA.REPUL>
0

>  <SCORE.INTRA.REPUL.0>
0

>  <SCORE.INTRA.VDW>
0.265193

>  <SCORE.INTRA.VDW.0>
-1.60828

>  <SCORE.INTRA.norm>
-0.130728

>  <SCORE.RESTR>
0.200452

>  <SCORE.RESTR.CAVITY>
0.200452

>  <SCORE.RESTR.norm>
0.0100226

>  <SCORE.SYSTEM>
-1.63704

>  <SCORE.SYSTEM.CONST>
0

>  <SCORE.SYSTEM.DIHEDRAL>
3.8358

>  <SCORE.SYSTEM.POLAR>
-0.805357

>  <SCORE.SYSTEM.REPUL>
0.110852

>  <SCORE.SYSTEM.VDW>
-1.37098

>  <SCORE.SYSTEM.norm>
-0.0818518

>  <SCORE.heavy>
20

>  <SCORE.norm>
-1.23653

$$$$

  rDOCK(R)          3D
libRbt.so/2013.1/901 2013/11/27
 25 26  0  0  0  0  0  0  0  0999 V2000
   -3.0608   -2.1725   15.6841 C   0  0  0  0  0  0
   -3.7040   -3.4245   15.7125 O   0  0  0  0  0  0
   -1.5957   -2.2816   15.3644 C   0  0  0  0  0  0
   -1.3105   -0.9969   14.5833 C   0  0  0  0  0  0
   -0.4729   -0.0749   15.3850 N   0  0  0  0  0  0
   -1.0033    1.0978   15.8605 C   0  0  0  0  0  0
   -0.2278    1.9891   16.5970 C   0  0  0  0  0  0
    1.1024    1.6631   16.8533 C   0  0  0  0  0  0
    1.8681    2.4602   17.5284 N   0  0  0  0  0  0
    1.5985    0.4892   16.3951 N   0  0  0  0  0  0
    0.8384   -0.3823   15.6809 C   0  0  0  0  0  0
    1.4320   -1.5822   15.2788 O   0  0  0  0  0  0
   -2.5362   -0.3872   14.2153 O   0  0  0  0  0  0
   -3.5786   -1.2637   14.5741 C   0  0  0  0  0  0
   -4.8079   -0.4534   15.0095 C   0  0  0  0  0  0
   -5.8844   -1.3130   15.3265 O   0  0  0  0  0  0
   -7.2575   -0.3987   15.7707 P   0  0  0  0  0  0
   -8.1858   -1.2443   16.6145 O   0  0  0  0  0  0
   -6.8064    0.9911   16.6286 O   0  0  0  0  0  0
   -8.0735    0.0711   14.3658 O   0  0  0  0  0  0
   -3.6003   -3.8494   14.8212 H   0  0  0  0  0  0
    1.5316    3.3753   17.9056 H   0  0  0  0  0  0
    2.0652   -2.1222   15.8519 H   0  0  0  0  0  0
   -6.2680    1.5267   15.9928 H   0  0  0  0  0  0
   -8.4943   -0.7605   14.0307 H   0  0  0  0  0  0
  1  2  1  0  0  0
  1  3  1  0  0  0
  3  4  1  0  0  0
  4  5  1  0  0  0
  5  6  1  0  0  0
  6  7  2  0  0  0
  7  8  1  0  0  0
  8  9  2  0  0  0
  8 10  1  0  0  0
 10 11  2  0  0  0
 11 12  1  0  0  0
  4 13  1  0  0  0
 13 14  1  0  0  0
 14 15  1  0  0  0
 15 16  1  0  0  0
 16 17  1  0  0  0
 17 18  2  0  0  0
 17 19  1  0  0  0
 17 20  1  0  0  0
 14  1  1  0  0  0
 11  5  1  0  0  0
  2 21  1  0  0  0
  9 22  1  0  0  0
 12 23  1  0  0  0
 19 24  1  0  0  0
 20 25  1  0  0  0
M  END
>  <CHROM.0>
-176.75065458,87.01296651,-47.06165022,67.58453483,63.11336970,15.35811465
179.85027216,63.52741569,-175.90311259,175.45009223

>  <CHROM.1>
-59.48483069,-111.15725020,-140.13176515,-62.41629827,-178.55597922,-157.40965501
63.06458139,72.42045851,-3.00747627,-0.40580445,15.66318682,-2.98920929,-0.01620632
0.36016436

>  <RI>
4.38658e+07

>  <Rbt.Current_Directory>
/extra/banzai2/j5wagner/CELPP/2016_10_17_rdock_implementation/normal_run/tutorialVideo/tutorial_rdock_implementation/full_week_run/4-docking/5wrn/SMCSS_4g6w_docking

>  <Rbt.Executable>
rbdock ($Id: //depot/dev/client3/rdock/2013.1/src/exe/rbdock.cxx#4 $)

>  <Rbt.Library>
libRbt.so (2013.1, Build901 2013/11/27)

>  <Rbt.Parameter_File>
/home/j5wagner/env_00/source/rDock/rDock_2013.1_src//data/scripts/dock.prm

>  <Rbt.Receptor>
/extra/banzai2/j5wagner/CELPP/2016_10_17_rdock_implementation/normal_run/tutorialVideo/tutorial_rdock_implementation/full_week_run/4-docking/5wrn/SMCSS_4g6w_tech_prep/rDockGridGenInput.prm

>  <SCORE>
-24.5994

>  <SCORE.INTER>
-18.0009

>  <SCORE.INTER.CONST>
1

>  <SCORE.INTER.POLAR>
-3.44644

>  <SCORE.INTER.REPUL>
0

>  <SCORE.INTER.ROT>
4

>  <SCORE.INTER.VDW>
-15.683

>  <SCORE.INTER.norm>
-0.900047

>  <SCORE.INTRA>
-0.93389

>  <SCORE.INTRA.DIHEDRAL>
-3.43195

>  <SCORE.INTRA.DIHEDRAL.0>
8.98184

>  <SCORE.INTRA.POLAR>
0

>  <SCORE.INTRA.POLAR.0>
0

>  <SCORE.INTRA.REPUL>
0

>  <SCORE.INTRA.REPUL.0>
0

>  <SCORE.INTRA.VDW>
0.782085

>  <SCORE.INTRA.VDW.0>
-1.60828

>  <SCORE.INTRA.norm>
-0.0466945

>  <SCORE.RESTR>
0.674286

>  <SCORE.RESTR.CAVITY>
0.674286

>  <SCORE.RESTR.norm>
0.0337143

>  <SCORE.SYSTEM>
-6.33886

>  <SCORE.SYSTEM.CONST>
0

>  <SCORE.SYSTEM.DIHEDRAL>
4.62106

>  <SCORE.SYSTEM.POLAR>
-2.17491

>  <SCORE.SYSTEM.VDW>
-1.25468

>  <SCORE.SYSTEM.norm>
-0.316943

>  <SCORE.heavy>
20

>  <SCORE.norm>
-1.22997

$$$$

  rDOCK(R)          3D
libRbt.so/2013.1/901 2013/11/27
 25 26  0  0  0  0  0  0  0  0999 V2000
   -4.3903    0.7305   16.4570 C   0  0  0  0  0  0
   -5.5345    1.2913   17.0555 O   0  0  0  0  0  0
   -3.1952    0.7424   17.3692 C   0  0  0  0  0  0
   -2.4394   -0.5281   16.9736 C   0  0  0  0  0  0
   -1.1795   -0.1878   16.2726 N   0  0  0  0  0  0
   -1.1861    0.7329   15.2553 C   0  0  0  0  0  0
   -0.0176    1.0511   14.5684 C   0  0  0  0  0  0
    1.1684    0.4218   14.9407 C   0  0  0  0  0  0
    2.2815    0.6778   14.3300 N   0  0  0  0  0  0
    1.1564   -0.4657   15.9636 N   0  0  0  0  0  0
    0.0158   -0.7711   16.6367 C   0  0  0  0  0  0
    0.1113   -1.6757   17.6980 O   0  0  0  0  0  0
   -3.2733   -1.3398   16.1642 O   0  0  0  0  0  0
   -4.5529   -0.7520   16.1379 C   0  0  0  0  0  0
   -5.2005   -0.9857   14.7656 C   0  0  0  0  0  0
   -6.1569   -2.0242   14.8365 O   0  0  0  0  0  0
   -7.6504   -1.4127   15.3972 P   0  0  0  0  0  0
   -7.8165   -1.7322   16.8665 O   0  0  0  0  0  0
   -7.7454    0.2622   15.1587 O   0  0  0  0  0  0
   -8.8994   -2.1562   14.5327 O   0  0  0  0  0  0
   -6.2913    1.2127   16.4176 H   0  0  0  0  0  0
    2.3431    1.3566   13.5373 H   0  0  0  0  0  0
    0.9182   -2.2569   17.8775 H   0  0  0  0  0  0
   -7.5795    0.3976   14.1916 H   0  0  0  0  0  0
   -9.7235   -1.7041   14.8446 H   0  0  0  0  0  0
  1  2  1  0  0  0
  1  3  1  0  0  0
  3  4  1  0  0  0
  4  5  1  0  0  0
  5  6  1  0  0  0
  6  7  2  0  0  0
  7  8  1  0  0  0
  8  9  2  0  0  0
  8 10  1  0  0  0
 10 11  2  0  0  0
 11 12  1  0  0  0
  4 13  1  0  0  0
 13 14  1  0  0  0
 14 15  1  0  0  0
 15 16  1  0  0  0
 16 17  1  0  0  0
 17 18  2  0  0  0
 17 19  1  0  0  0
 17 20  1  0  0  0
 14  1  1  0  0  0
 11  5  1  0  0  0
  2 21  1  0  0  0
  9 22  1  0  0  0
 12 23  1  0  0  0
 19 24  1  0  0  0
 20 25  1  0  0  0
M  END
>  <CHROM.0>
-74.92819277,-54.12436517,-173.90520741,69.05793792,-172.42910496,-3.29722772
-170.96478594,-178.04991956,24.60363512,-83.35634230

>  <CHROM.1>
-177.39514409,-47.82641868,167.31529876,-137.85511804,83.42011318,-100.51759295
55.40371331,-175.10544002,-3.65312277,-0.50112494,15.84370289,-3.10794219
-0.14501666,-1.12751160

>  <RI>
4.38658e+07

>  <Rbt.Current_Directory>
/extra/banzai2/j5wagner/CELPP/2016_10_17_rdock_implementation/normal_run/tutorialVideo/tutorial_rdock_implementation/full_week_run/4-docking/5wrn/SMCSS_4g6w_docking

>  <Rbt.Executable>
rbdock ($Id: //depot/dev/client3/rdock/2013.1/src/exe/rbdock.cxx#4 $)

>  <Rbt.Library>
libRbt.so (2013.1, Build901 2013/11/27)

>  <Rbt.Parameter_File>
/home/j5wagner/env_00/source/rDock/rDock_2013.1_src//data/scripts/dock.prm

>  <Rbt.Receptor>
/extra/banzai2/j5wagner/CELPP/2016_10_17_rdock_implementation/normal_run/tutorialVideo/tutorial_rdock_implementation/full_week_run/4-docking/5wrn/SMCSS_4g6w_tech_prep/rDockGridGenInput.prm

>  <SCORE>
-24.5658

>  <SCORE.INTER>
-25.9757

>  <SCORE.INTER.CONST>
1

>  <SCORE.INTER.POLAR>
-4.64628

>  <SCORE.INTER.REPUL>
0

>  <SCORE.INTER.ROT>
4

>  <SCORE.INTER.VDW>
-19.5784

>  <SCORE.INTER.norm>
-1.29879

>  <SCORE.INTRA>
-2.36155

>  <SCORE.INTRA.DIHEDRAL>
2.16267

>  <SCORE.INTRA.DIHEDRAL.0>
8.98184

>  <SCORE.INTRA.POLAR>
-1

>  <SCORE.INTRA.POLAR.0>
0

>  <SCORE.INTRA.REPUL>
0

>  <SCORE.INTRA.REPUL.0>
0

>  <SCORE.INTRA.VDW>
-0.0428905

>  <SCORE.INTRA.VDW.0>
-1.60828

>  <SCORE.INTRA.norm>
-0.118078

>  <SCORE.RESTR>
0

>  <SCORE.RESTR.CAVITY>
0

>  <SCORE.RESTR.norm>
0

>  <SCORE.SYSTEM>
3.77151

>  <SCORE.SYSTEM.CONST>
0

>  <SCORE.SYSTEM.DIHEDRAL>
7.39998

>  <SCORE.SYSTEM.POLAR>
-0.633656

>  <SCORE.SYSTEM.REPUL>
0.391275

>  <SCORE.SYSTEM.VDW>
0.269575

>  <SCORE.SYSTEM.norm>
0.188575

>  <SCORE.heavy>
20

>  <SCORE.norm>
-1.22829

$$$$

  rDOCK(R)          3D
libRbt.so/2013.1/901 2013/11/27
 25 26  0  0  0  0  0  0  0  0999 V2000
    0.5157   -0.1630   14.6277 C   0  0  0  0  0  0
    1.4425    0.1531   13.6162 O   0  0  0  0  0  0
   -0.3205    1.0180   15.0361 C   0  0  0  0  0  0
   -1.6662    0.3860   15.3991 C   0  0  0  0  0  0
   -1.8964    0.4545   16.8608 N   0  0  0  0  0  0
   -1.2102    1.3662   17.6227 C   0  0  0  0  0  0
   -1.3947    1.4326   19.0011 C   0  0  0  0  0  0
   -2.3016    0.5582   19.5964 C   0  0  0  0  0  0
   -2.5056    0.5749   20.8753 N   0  0  0  0  0  0
   -2.9859   -0.3172   18.8222 N   0  0  0  0  0  0
   -2.8086   -0.3769   17.4759 C   0  0  0  0  0  0
   -3.5844   -1.2926   16.7594 O   0  0  0  0  0  0
   -1.6975   -0.9538   14.9373 O   0  0  0  0  0  0
   -0.5324   -1.1755   14.1777 C   0  0  0  0  0  0
   -0.0616   -2.6247   14.3652 C   0  0  0  0  0  0
    0.2421   -2.8782   15.7223 O   0  0  0  0  0  0
    1.9324   -3.0065   15.9341 P   0  0  0  0  0  0
    2.5100   -3.9425   14.8953 O   0  0  0  0  0  0
    2.6734   -1.4873   15.8147 O   0  0  0  0  0  0
    2.2394   -3.6414   17.4713 O   0  0  0  0  0  0
    0.9578    0.6103   12.8799 H   0  0  0  0  0  0
   -2.0048    1.2333   21.5146 H   0  0  0  0  0  0
   -3.4060   -1.5606   15.8016 H   0  0  0  0  0  0
    3.6344   -1.6516   15.9893 H   0  0  0  0  0  0
    1.8880   -4.5666   17.4349 H   0  0  0  0  0  0
  1  2  1  0  0  0
  1  3  1  0  0  0
  3  4  1  0  0  0
  4  5  1  0  0  0
  5  6  1  0  0  0
  6  7  2  0  0  0
  7  8  1  0  0  0
  8  9  2  0  0  0
  8 10  1  0  0  0
 10 11  2  0  0  0
 11 12  1  0  0  0
  4 13  1  0  0  0
 13 14  1  0  0  0
 14 15  1  0  0  0
 15 16  1  0  0  0
 16 17  1  0  0  0
 17 18  2  0  0  0
 17 19  1  0  0  0
 17 20  1  0  0  0
 14  1  1  0  0  0
 11  5  1  0  0  0
  2 21  1  0  0  0
  9 22  1  0  0  0
 12 23  1  0  0  0
 19 24  1  0  0  0
 20 25  1  0  0  0
M  END
>  <CHROM.0>
-59.06477731,83.66907890,-49.26720778,-61.07454622,-176.81247809,-14.99041708
71.01285122,-62.93190029,6.45837110,173.79421346

>  <CHROM.1>
-50.87119358,20.56896958,13.90913218,59.01608210,-107.75443375,-48.66159071
177.52036488,66.42192289,-0.33822366,-1.00953913,16.36523143,0.39014688,0.73553219
-1.28667253

>  <RI>
4.38658e+07

>  <Rbt.Current_Directory>
/extra/banzai2/j5wagner/CELPP/2016_10_17_rdock_implementation/normal_run/tutorialVideo/tutorial_rdock_implementation/full_week_run/4-docking/5wrn/SMCSS_4g6w_docking

>  <Rbt.Executable>
rbdock ($Id: //depot/dev/client3/rdock/2013.1/src/exe/rbdock.cxx#4 $)

>  <Rbt.Library>
libRbt.so (2013.1, Build901 2013/11/27)

>  <Rbt.Parameter_File>
/home/j5wagner/env_00/source/rDock/rDock_2013.1_src//data/scripts/dock.prm

>  <Rbt.Receptor>
/extra/banzai2/j5wagner/CELPP/2016_10_17_rdock_implementation/normal_run/tutorialVideo/tutorial_rdock_implementation/full_week_run/4-docking/5wrn/SMCSS_4g6w_tech_prep/rDockGridGenInput.prm

>  <SCORE>
-24.3179

>  <SCORE.INTER>
-21.5223

>  <SCORE.INTER.CONST>
1

>  <SCORE.INTER.POLAR>
-4.32371

>  <SCORE.INTER.REPUL>
0

>  <SCORE.INTER.ROT>
4

>  <SCORE.INTER.VDW>
-16.2216

>  <SCORE.INTER.norm>
-1.07611

>  <SCORE.INTRA>
1.06762

>  <SCORE.INTRA.DIHEDRAL>
0.996732

>  <SCORE.INTRA.DIHEDRAL.0>
8.98184

>  <SCORE.INTRA.POLAR>
-0.371052

>  <SCORE.INTRA.POLAR.0>
0

>  <SCORE.INTRA.REPUL>
0

>  <SCORE.INTRA.REPUL.0>
0

>  <SCORE.INTRA.VDW>
1.83083

>  <SCORE.INTRA.VDW.0>
-1.60828

>  <SCORE.INTRA.norm>
0.0533809

>  <SCORE.RESTR>
0.0331015

>  <SCORE.RESTR.CAVITY>
0.0331015

>  <SCORE.RESTR.norm>
0.00165507

>  <SCORE.SYSTEM>
-3.89633

>  <SCORE.SYSTEM.CONST>
0

>  <SCORE.SYSTEM.DIHEDRAL>
4.07189

>  <SCORE.SYSTEM.POLAR>
-1.57858

>  <SCORE.SYSTEM.VDW>
-0.565103

>  <SCORE.SYSTEM.norm>
-0.194816

>  <SCORE.heavy>
20

>  <SCORE.norm>
-1.21589

$$$$

  rDOCK(R)          3D
libRbt.so/2013.1/901 2013/11/27
 25 26  0  0  0  0  0  0  0  0999 V2000
    1.2180    0.3557   15.0768 C   0  0  0  0  0  0
    2.1763    0.5158   14.0580 O   0  0  0  0  0  0
    0.4489    1.6181   15.3515 C   0  0  0  0  0  0
   -0.9375    1.1050   15.7474 C   0  0  0  0  0  0
   -1.1837    1.3304   17.1907 N   0  0  0  0  0  0
   -2.2521    2.0903   17.5952 C   0  0  0  0  0  0
   -2.4891    2.3332   18.9455 C   0  0  0  0  0  0
   -1.6228    1.7796   19.8858 C   0  0  0  0  0  0
   -1.7955    1.9800   21.1536 N   0  0  0  0  0  0
   -0.5887    1.0127   19.4654 N   0  0  0  0  0  0
   -0.3620    0.7721   18.1471 C   0  0  0  0  0  0
    0.7125   -0.0577   17.8146 O   0  0  0  0  0  0
   -1.0431   -0.2696   15.4179 O   0  0  0  0  0  0
    0.1171   -0.6329   14.7069 C   0  0  0  0  0  0
    0.4970   -2.0818   15.0441 C   0  0  0  0  0  0
    0.9351   -2.1829   16.3842 O   0  0  0  0  0  0
    1.8986   -3.5793   16.5855 P   0  0  0  0  0  0
    2.6023   -3.5285   17.9237 O   0  0  0  0  0  0
    0.9558   -4.9836   16.4845 O   0  0  0  0  0  0
    3.0619   -3.6166   15.3584 O   0  0  0  0  0  0
    1.7346    0.9424   13.2777 H   0  0  0  0  0  0
   -2.5797    2.5613   21.5280 H   0  0  0  0  0  0
    0.6149   -1.0064   17.4808 H   0  0  0  0  0  0
    0.3125   -4.9203   17.2350 H   0  0  0  0  0  0
    3.9285   -3.5466   15.8327 H   0  0  0  0  0  0
  1  2  1  0  0  0
  1  3  1  0  0  0
  3  4  1  0  0  0
  4  5  1  0  0  0
  5  6  1  0  0  0
  6  7  2  0  0  0
  7  8  1  0  0  0
  8  9  2  0  0  0
  8 10  1  0  0  0
 10 11  2  0  0  0
 11 12  1  0  0  0
  4 13  1  0  0  0
 13 14  1  0  0  0
 14 15  1  0  0  0
 15 16  1  0  0  0
 16 17  1  0  0  0
 17 18  2  0  0  0
 17 19  1  0  0  0
 17 20  1  0  0  0
 14  1  1  0  0  0
 11  5  1  0  0  0
  2 21  1  0  0  0
  9 22  1  0  0  0
 12 23  1  0  0  0
 19 24  1  0  0  0
 20 25  1  0  0  0
M  END
>  <CHROM.0>
179.06035986,83.02559159,-52.74359469,64.17015496,-177.08595991,14.96041827
69.55198655,68.76028721,175.31074013,-21.64372939

>  <CHROM.1>
-49.76330565,121.21423755,-72.86672361,51.30513223,-158.12673189,167.91557157
-61.99825454,116.64838524,0.31303023,-0.61778679,16.84935015,-0.03765990
1.03120338,-1.03384993

>  <RI>
4.38658e+07

>  <Rbt.Current_Directory>
/extra/banzai2/j5wagner/CELPP/2016_10_17_rdock_implementation/normal_run/tutorialVideo/tutorial_rdock_implementation/full_week_run/4-docking/5wrn/SMCSS_4g6w_docking

>  <Rbt.Executable>
rbdock ($Id: //depot/dev/client3/rdock/2013.1/src/exe/rbdock.cxx#4 $)

>  <Rbt.Library>
libRbt.so (2013.1, Build901 2013/11/27)

>  <Rbt.Parameter_File>
/home/j5wagner/env_00/source/rDock/rDock_2013.1_src//data/scripts/dock.prm

>  <Rbt.Receptor>
/extra/banzai2/j5wagner/CELPP/2016_10_17_rdock_implementation/normal_run/tutorialVideo/tutorial_rdock_implementation/full_week_run/4-docking/5wrn/SMCSS_4g6w_tech_prep/rDockGridGenInput.prm

>  <SCORE>
-23.7886

>  <SCORE.INTER>
-19.6446

>  <SCORE.INTER.CONST>
1

>  <SCORE.INTER.POLAR>
-4.61602

>  <SCORE.INTER.REPUL>
0

>  <SCORE.INTER.ROT>
4

>  <SCORE.INTER.VDW>
-13.3501

>  <SCORE.INTER.norm>
-0.98223

>  <SCORE.INTRA>
-1.84894

>  <SCORE.INTRA.DIHEDRAL>
3.34492

>  <SCORE.INTRA.DIHEDRAL.0>
8.98184

>  <SCORE.INTRA.POLAR>
-0.971059

>  <SCORE.INTRA.POLAR.0>
0

>  <SCORE.INTRA.REPUL>
0

>  <SCORE.INTRA.REPUL.0>
0

>  <SCORE.INTRA.VDW>
-0.219795

>  <SCORE.INTRA.VDW.0>
-1.60828

>  <SCORE.INTRA.norm>
-0.0924468

>  <SCORE.RESTR>
0.849522

>  <SCORE.RESTR.CAVITY>
0.849522

>  <SCORE.RESTR.norm>
0.0424761

>  <SCORE.SYSTEM>
-3.1446

>  <SCORE.SYSTEM.CONST>
0

>  <SCORE.SYSTEM.DIHEDRAL>
4.48915

>  <SCORE.SYSTEM.POLAR>
-1.7424

>  <SCORE.SYSTEM.REPUL>
0.272834

>  <SCORE.SYSTEM.VDW>
-0.829195

>  <SCORE.SYSTEM.norm>
-0.15723

>  <SCORE.heavy>
20

>  <SCORE.norm>
-1.18943

$$$$

  rDOCK(R)          3D
libRbt.so/2013.1/901 2013/11/27
 25 26  0  0  0  0  0  0  0  0999 V2000
   -1.4492   -1.7643   13.7260 C   0  0  0  0  0  0
   -0.4858   -2.1049   12.7576 O   0  0  0  0  0  0
   -2.7441   -2.5053   13.5397 C   0  0  0  0  0  0
   -3.2526   -2.6883   14.9715 C   0  0  0  0  0  0
   -4.4438   -1.8418   15.2134 N   0  0  0  0  0  0
   -5.6920   -2.2979   14.8719 C   0  0  0  0  0  0
   -6.8226   -1.5099   15.0700 C   0  0  0  0  0  0
   -6.6650   -0.2455   15.6339 C   0  0  0  0  0  0
   -7.6835    0.5291   15.8337 N   0  0  0  0  0  0
   -5.4267    0.1749   15.9859 N   0  0  0  0  0  0
   -4.3247   -0.5979   15.7968 C   0  0  0  0  0  0
   -3.0944   -0.0884   16.2216 O   0  0  0  0  0  0
   -2.2119   -2.3818   15.8840 O   0  0  0  0  0  0
   -1.0367   -2.1617   15.1396 C   0  0  0  0  0  0
   -0.1864   -1.0821   15.8242 C   0  0  0  0  0  0
    0.9966   -0.8395   15.0895 O   0  0  0  0  0  0
    0.7995    0.5329   14.0914 P   0  0  0  0  0  0
    0.7359    0.1075   12.6410 O   0  0  0  0  0  0
   -0.6072    1.3829   14.5036 O   0  0  0  0  0  0
    2.1320    1.5526   14.3028 O   0  0  0  0  0  0
   -0.3076   -3.0795   12.8232 H   0  0  0  0  0  0
   -8.6589    0.2494   15.5822 H   0  0  0  0  0  0
   -2.3748   -0.6404   16.6672 H   0  0  0  0  0  0
   -0.4289    1.7623   15.4010 H   0  0  0  0  0  0
    2.6338    1.4888   13.4513 H   0  0  0  0  0  0
  1  2  1  0  0  0
  1  3  1  0  0  0
  3  4  1  0  0  0
  4  5  1  0  0  0
  5  6  1  0  0  0
  6  7  2  0  0  0
  7  8  1  0  0  0
  8  9  2  0  0  0
  8 10  1  0  0  0
 10 11  2  0  0  0
 11 12  1  0  0  0
  4 13  1  0  0  0
 13 14  1  0  0  0
 14 15  1  0  0  0
 15 16  1  0  0  0
 16 17  1  0  0  0
 17 18  2  0  0  0
 17 19  1  0  0  0
 17 20  1  0  0  0
 14  1  1  0  0  0
 11  5  1  0  0  0
  2 21  1  0  0  0
  9 22  1  0  0  0
 12 23  1  0  0  0
 19 24  1  0  0  0
 20 25  1  0  0  0
M  END
>  <CHROM.0>
-176.97335104,85.52201177,-43.07947473,-178.19662113,-174.24749870,-172.31090170
178.28062719,-62.55382359,-172.48934443,-4.83548748

>  <CHROM.1>
-59.68783954,85.25433777,-38.94443693,-59.91261959,97.77756941,-109.71558218
68.09921086,109.83938326,-2.21878080,-0.76084009,14.78520912,-0.08425393
-0.23433467,-2.89246277

>  <RI>
4.38658e+07

>  <Rbt.Current_Directory>
/extra/banzai2/j5wagner/CELPP/2016_10_17_rdock_implementation/normal_run/tutorialVideo/tutorial_rdock_implementation/full_week_run/4-docking/5wrn/SMCSS_4g6w_docking

>  <Rbt.Executable>
rbdock ($Id: //depot/dev/client3/rdock/2013.1/src/exe/rbdock.cxx#4 $)

>  <Rbt.Library>
libRbt.so (2013.1, Build901 2013/11/27)

>  <Rbt.Parameter_File>
/home/j5wagner/env_00/source/rDock/rDock_2013.1_src//data/scripts/dock.prm

>  <Rbt.Receptor>
/extra/banzai2/j5wagner/CELPP/2016_10_17_rdock_implementation/normal_run/tutorialVideo/tutorial_rdock_implementation/full_week_run/4-docking/5wrn/SMCSS_4g6w_tech_prep/rDockGridGenInput.prm

>  <SCORE>
-23.6531

>  <SCORE.INTER>
-23.6273

>  <SCORE.INTER.CONST>
1

>  <SCORE.INTER.POLAR>
-4.72935

>  <SCORE.INTER.REPUL>
0

>  <SCORE.INTER.ROT>
4

>  <SCORE.INTER.VDW>
-16.9475

>  <SCORE.INTER.norm>
-1.18136

>  <SCORE.INTRA>
2.74289

>  <SCORE.INTRA.DIHEDRAL>
4.94278

>  <SCORE.INTRA.DIHEDRAL.0>
8.98184

>  <SCORE.INTRA.POLAR>
-0.227107

>  <SCORE.INTRA.POLAR.0>
0

>  <SCORE.INTRA.REPUL>
0

>  <SCORE.INTRA.REPUL.0>
0

>  <SCORE.INTRA.VDW>
1.04366

>  <SCORE.INTRA.VDW.0>
-1.60828

>  <SCORE.INTRA.norm>
0.137144

>  <SCORE.RESTR>
0

>  <SCORE.RESTR.CAVITY>
0

>  <SCORE.RESTR.norm>
0

>  <SCORE.SYSTEM>
-2.76872

>  <SCORE.SYSTEM.CONST>
0

>  <SCORE.SYSTEM.DIHEDRAL>
4.45348

>  <SCORE.SYSTEM.POLAR>
-1.39028

>  <SCORE.SYSTEM.REPUL>
0.272834

>  <SCORE.SYSTEM.VDW>
-1.63266

>  <SCORE.SYSTEM.norm>
-0.138436

>  <SCORE.heavy>
20

>  <SCORE.norm>
-1.18266

$$$$

  rDOCK(R)          3D
libRbt.so/2013.1/901 2013/11/27
 25 26  0  0  0  0  0  0  0  0999 V2000
   -2.9471   -1.6459   16.9833 C   0  0  0  0  0  0
   -3.6088   -2.3178   18.0286 O   0  0  0  0  0  0
   -1.4783   -1.9630   16.9299 C   0  0  0  0  0  0
   -1.1607   -1.9029   15.4341 C   0  0  0  0  0  0
   -0.3240   -0.7198   15.1263 N   0  0  0  0  0  0
   -0.9114    0.4469   14.7064 C   0  0  0  0  0  0
   -0.1424    1.5638   14.3906 C   0  0  0  0  0  0
    1.2425    1.4790   14.5186 C   0  0  0  0  0  0
    2.0034    2.4871   14.2319 N   0  0  0  0  0  0
    1.7993    0.3253   14.9580 N   0  0  0  0  0  0
    1.0467   -0.7623   15.2711 C   0  0  0  0  0  0
    1.7116   -1.8963   15.7460 O   0  0  0  0  0  0
   -2.3707   -1.8811   14.6959 O   0  0  0  0  0  0
   -3.4320   -2.0730   15.6018 C   0  0  0  0  0  0
   -4.6567   -1.2707   15.1398 C   0  0  0  0  0  0
   -5.8160   -1.6883   15.8325 O   0  0  0  0  0  0
   -7.0667   -0.5417   15.6333 P   0  0  0  0  0  0
   -7.2286   -0.2088   14.1665 O   0  0  0  0  0  0
   -8.5297   -1.1291   16.2545 O   0  0  0  0  0  0
   -6.6483    0.8676   16.4695 O   0  0  0  0  0  0
   -3.5317   -3.2950   17.8703 H   0  0  0  0  0  0
    1.6218    3.3992   13.8923 H   0  0  0  0  0  0
    1.2552   -2.6687   16.2109 H   0  0  0  0  0  0
   -9.2199   -0.4898   15.9447 H   0  0  0  0  0  0
   -7.3396    1.5275   16.2098 H   0  0  0  0  0  0
  1  2  1  0  0  0
  1  3  1  0  0  0
  3  4  1  0  0  0
  4  5  1  0  0  0
  5  6  1  0  0  0
  6  7  2  0  0  0
  7  8  1  0  0  0
  8  9  2  0  0  0
  8 10  1  0  0  0
 10 11  2  0  0  0
 11 12  1  0  0  0
  4 13  1  0  0  0
 13 14  1  0  0  0
 14 15  1  0  0  0
 15 16  1  0  0  0
 16 17  1  0  0  0
 17 18  2  0  0  0
 17 19  1  0  0  0
 17 20  1  0  0  0
 14  1  1  0  0  0
 11  5  1  0  0  0
  2 21  1  0  0  0
  9 22  1  0  0  0
 12 23  1  0  0  0
 19 24  1  0  0  0
 20 25  1  0  0  0
M  END
>  <CHROM.0>
-61.56780355,-57.03941120,-42.46207736,-179.38692713,61.35309674,5.93413717
-61.33085897,-64.65773349,-177.91335264,-6.91492504

>  <CHROM.1>
-62.07735257,-94.78315083,-14.74365853,-74.29350188,164.94604177,49.84556183
-169.41165115,172.09519925,-2.85736394,-0.66675510,15.54803486,-2.99074263
0.03439893,-0.50887245

>  <RI>
4.38658e+07

>  <Rbt.Current_Directory>
/extra/banzai2/j5wagner/CELPP/2016_10_17_rdock_implementation/normal_run/tutorialVideo/tutorial_rdock_implementation/full_week_run/4-docking/5wrn/SMCSS_4g6w_docking

>  <Rbt.Executable>
rbdock ($Id: //depot/dev/client3/rdock/2013.1/src/exe/rbdock.cxx#4 $)

>  <Rbt.Library>
libRbt.so (2013.1, Build901 2013/11/27)

>  <Rbt.Parameter_File>
/home/j5wagner/env_00/source/rDock/rDock_2013.1_src//data/scripts/dock.prm

>  <Rbt.Receptor>
/extra/banzai2/j5wagner/CELPP/2016_10_17_rdock_implementation/normal_run/tutorialVideo/tutorial_rdock_implementation/full_week_run/4-docking/5wrn/SMCSS_4g6w_tech_prep/rDockGridGenInput.prm

>  <SCORE>
-23.3858

>  <SCORE.INTER>
-20.1142

>  <SCORE.INTER.CONST>
1

>  <SCORE.INTER.POLAR>
-3.94076

>  <SCORE.INTER.REPUL>
0

>  <SCORE.INTER.ROT>
4

>  <SCORE.INTER.VDW>
-16.1157

>  <SCORE.INTER.norm>
-1.00571

>  <SCORE.INTRA>
-1.7205

>  <SCORE.INTRA.DIHEDRAL>
-3.92657

>  <SCORE.INTRA.DIHEDRAL.0>
8.98184

>  <SCORE.INTRA.POLAR>
0

>  <SCORE.INTRA.POLAR.0>
0

>  <SCORE.INTRA.REPUL>
0

>  <SCORE.INTRA.REPUL.0>
0

>  <SCORE.INTRA.VDW>
0.24279

>  <SCORE.INTRA.VDW.0>
-1.60828

>  <SCORE.INTRA.norm>
-0.0860248

>  <SCORE.RESTR>
0.127727

>  <SCORE.RESTR.CAVITY>
0.127727

>  <SCORE.RESTR.norm>
0.00638635

>  <SCORE.SYSTEM>
-1.67876

>  <SCORE.SYSTEM.CONST>
0

>  <SCORE.SYSTEM.DIHEDRAL>
1.72037

>  <SCORE.SYSTEM.POLAR>
-0.884046

>  <SCORE.SYSTEM.REPUL>
0.272834

>  <SCORE.SYSTEM.VDW>
-0.897361

>  <SCORE.SYSTEM.norm>
-0.0839382

>  <SCORE.heavy>
20

>  <SCORE.norm>
-1.16929

$$$$

  rDOCK(R)          3D
libRbt.so/2013.1/901 2013/11/27
 25 26  0  0  0  0  0  0  0  0999 V2000
   -0.7134   -0.5192   16.9682 C   0  0  0  0  0  0
    0.3534   -0.1553   17.8116 O   0  0  0  0  0  0
   -1.9709    0.2514   17.2604 C   0  0  0  0  0  0
   -2.6290    0.3832   15.8850 C   0  0  0  0  0  0
   -3.8503   -0.4519   15.8098 N   0  0  0  0  0  0
   -5.0663    0.1303   15.5548 C   0  0  0  0  0  0
   -6.2297   -0.6327   15.5019 C   0  0  0  0  0  0
   -6.1362   -2.0081   15.7039 C   0  0  0  0  0  0
   -7.1888   -2.7619   15.6709 N   0  0  0  0  0  0
   -4.9226   -2.5650   15.9300 N   0  0  0  0  0  0
   -3.7871   -1.8194   15.9759 C   0  0  0  0  0  0
   -2.5786   -2.4901   16.1841 O   0  0  0  0  0  0
   -1.6974    0.0206   14.8801 O   0  0  0  0  0  0
   -0.4514   -0.1888   15.5025 C   0  0  0  0  0  0
    0.3058   -1.3107   14.7780 C   0  0  0  0  0  0
    1.5526   -1.5519   15.3989 O   0  0  0  0  0  0
    1.5644   -3.1030   16.1147 P   0  0  0  0  0  0
    1.8095   -2.9796   17.6024 O   0  0  0  0  0  0
    0.0988   -3.9073   15.8381 O   0  0  0  0  0  0
    2.8181   -4.0071   15.4285 O   0  0  0  0  0  0
    0.0812   -0.3254   18.7512 H   0  0  0  0  0  0
   -8.1466   -2.3806   15.4970 H   0  0  0  0  0  0
   -2.4981   -3.4900   16.3056 H   0  0  0  0  0  0
   -0.5971   -3.3250   16.2352 H   0  0  0  0  0  0
    3.6464   -3.5985   15.7862 H   0  0  0  0  0  0
  1  2  1  0  0  0
  1  3  1  0  0  0
  3  4  1  0  0  0
  4  5  1  0  0  0
  5  6  1  0  0  0
  6  7  2  0  0  0
  7  8  1  0  0  0
  8  9  2  0  0  0
  8 10  1  0  0  0
 10 11  2  0  0  0
 11 12  1  0  0  0
  4 13  1  0  0  0
 13 14  1  0  0  0
 14 15  1  0  0  0
 15 16  1  0  0  0
 16 17  1  0  0  0
 17 18  2  0  0  0
 17 19  1  0  0  0
 17 20  1  0  0  0
 14  1  1  0  0  0
 11  5  1  0  0  0
  2 21  1  0  0  0
  9 22  1  0  0  0
 12 23  1  0  0  0
 19 24  1  0  0  0
 20 25  1  0  0  0
M  END
>  <CHROM.0>
61.58668498,84.24048278,-51.71283428,66.17083846,60.56798391,-172.23718415
-70.27297083,57.85487208,-175.53769467,175.23000079

>  <CHROM.1>
59.35013876,120.28307612,-179.76145027,-59.34268636,113.31100506,-120.18388215
-58.97762646,70.98980139,-1.57545751,-1.63738043,16.01703351,-0.17867621
-0.08033318,0.11608936

>  <RI>
4.38658e+07

>  <Rbt.Current_Directory>
/extra/banzai2/j5wagner/CELPP/2016_10_17_rdock_implementation/normal_run/tutorialVideo/tutorial_rdock_implementation/full_week_run/4-docking/5wrn/SMCSS_4g6w_docking

>  <Rbt.Executable>
rbdock ($Id: //depot/dev/client3/rdock/2013.1/src/exe/rbdock.cxx#4 $)

>  <Rbt.Library>
libRbt.so (2013.1, Build901 2013/11/27)

>  <Rbt.Parameter_File>
/home/j5wagner/env_00/source/rDock/rDock_2013.1_src//data/scripts/dock.prm

>  <Rbt.Receptor>
/extra/banzai2/j5wagner/CELPP/2016_10_17_rdock_implementation/normal_run/tutorialVideo/tutorial_rdock_implementation/full_week_run/4-docking/5wrn/SMCSS_4g6w_tech_prep/rDockGridGenInput.prm

>  <SCORE>
-23.3741

>  <SCORE.INTER>
-14.6454

>  <SCORE.INTER.CONST>
1

>  <SCORE.INTER.POLAR>
-2.93343

>  <SCORE.INTER.REPUL>
0

>  <SCORE.INTER.ROT>
4

>  <SCORE.INTER.VDW>
-14.0717

>  <SCORE.INTER.norm>
-0.73227

>  <SCORE.INTRA>
-2.39921

>  <SCORE.INTRA.DIHEDRAL>
3.07419

>  <SCORE.INTRA.DIHEDRAL.0>
8.98184

>  <SCORE.INTRA.POLAR>
-0.997664

>  <SCORE.INTRA.POLAR.0>
0

>  <SCORE.INTRA.REPUL>
0

>  <SCORE.INTRA.REPUL.0>
0

>  <SCORE.INTRA.VDW>
-0.544251

>  <SCORE.INTRA.VDW.0>
-1.60828

>  <SCORE.INTRA.norm>
-0.119961

>  <SCORE.RESTR>
0.39191

>  <SCORE.RESTR.CAVITY>
0.39191

>  <SCORE.RESTR.norm>
0.0195955

>  <SCORE.SYSTEM>
-6.72143

>  <SCORE.SYSTEM.CONST>
0

>  <SCORE.SYSTEM.DIHEDRAL>
3.74307

>  <SCORE.SYSTEM.POLAR>
-2.07419

>  <SCORE.SYSTEM.VDW>
-1.54071

>  <SCORE.SYSTEM.norm>
-0.336072

>  <SCORE.heavy>
20

>  <SCORE.norm>
-1.16871

$$$$

  rDOCK(R)          3D
libRbt.so/2013.1/901 2013/11/27
 25 26  0  0  0  0  0  0  0  0999 V2000
   -4.2744    0.8401   16.5285 C   0  0  0  0  0  0
   -5.3803    1.3968   17.1986 O   0  0  0  0  0  0
   -3.0698    0.6998   17.4172 C   0  0  0  0  0  0
   -2.3869   -0.5624   16.8856 C   0  0  0  0  0  0
   -1.1191   -0.2194   16.2005 N   0  0  0  0  0  0
   -1.0734   -0.1561   14.8306 C   0  0  0  0  0  0
    0.1128    0.1425   14.1656 C   0  0  0  0  0  0
    1.2582    0.3875   14.9203 C   0  0  0  0  0  0
    2.3879    0.6637   14.3505 N   0  0  0  0  0  0
    1.1847    0.3435   16.2719 N   0  0  0  0  0  0
    0.0246    0.0572   16.9196 C   0  0  0  0  0  0
    0.0426    0.0666   18.3172 O   0  0  0  0  0  0
   -3.2720   -1.2456   16.0142 O   0  0  0  0  0  0
   -4.5189   -0.5930   16.0676 C   0  0  0  0  0  0
   -5.1939   -0.6555   14.6900 C   0  0  0  0  0  0
   -6.0003   -1.8115   14.5824 O   0  0  0  0  0  0
   -7.5244   -1.5362   15.3034 P   0  0  0  0  0  0
   -8.4390   -0.8400   14.3198 O   0  0  0  0  0  0
   -8.2260   -2.9935   15.8087 O   0  0  0  0  0  0
   -7.3134   -0.5383   16.6525 O   0  0  0  0  0  0
   -6.2003    1.1790   16.6830 H   0  0  0  0  0  0
    2.4951    0.7125   13.3117 H   0  0  0  0  0  0
   -0.7702   -0.0918   18.8963 H   0  0  0  0  0  0
   -8.9628   -2.7311   16.4164 H   0  0  0  0  0  0
   -8.1727   -0.5938   17.1419 H   0  0  0  0  0  0
  1  2  1  0  0  0
  1  3  1  0  0  0
  3  4  1  0  0  0
  4  5  1  0  0  0
  5  6  1  0  0  0
  6  7  2  0  0  0
  7  8  1  0  0  0
  8  9  2  0  0  0
  8 10  1  0  0  0
 10 11  2  0  0  0
 11 12  1  0  0  0
  4 13  1  0  0  0
 13 14  1  0  0  0
 14 15  1  0  0  0
 15 16  1  0  0  0
 16 17  1  0  0  0
 17 18  2  0  0  0
 17 19  1  0  0  0
 17 20  1  0  0  0
 14  1  1  0  0  0
 11  5  1  0  0  0
  2 21  1  0  0  0
  9 22  1  0  0  0
 12 23  1  0  0  0
 19 24  1  0  0  0
 20 25  1  0  0  0
M  END
>  <CHROM.0>
177.26408145,177.02712942,59.59625015,67.79865413,-54.09270454,16.04907390
161.83501017,-61.73926342,2.41057069,0.63254480

>  <CHROM.1>
-160.74666597,-100.48926456,-2.28625837,-149.91265218,82.50461357,83.56412914
165.21263355,-166.86058638,-3.56913211,-0.42919523,15.86480855,3.03376360
-0.16915822,-1.93571115

>  <RI>
4.38658e+07

>  <Rbt.Current_Directory>
/extra/banzai2/j5wagner/CELPP/2016_10_17_rdock_implementation/normal_run/tutorialVideo/tutorial_rdock_implementation/full_week_run/4-docking/5wrn/SMCSS_4g6w_docking

>  <Rbt.Executable>
rbdock ($Id: //depot/dev/client3/rdock/2013.1/src/exe/rbdock.cxx#4 $)

>  <Rbt.Library>
libRbt.so (2013.1, Build901 2013/11/27)

>  <Rbt.Parameter_File>
/home/j5wagner/env_00/source/rDock/rDock_2013.1_src//data/scripts/dock.prm

>  <Rbt.Receptor>
/extra/banzai2/j5wagner/CELPP/2016_10_17_rdock_implementation/normal_run/tutorialVideo/tutorial_rdock_implementation/full_week_run/4-docking/5wrn/SMCSS_4g6w_tech_prep/rDockGridGenInput.prm

>  <SCORE>
-22.889

>  <SCORE.INTER>
-21.539

>  <SCORE.INTER.CONST>
1

>  <SCORE.INTER.POLAR>
-3.30626

>  <SCORE.INTER.REPUL>
0

>  <SCORE.INTER.ROT>
4

>  <SCORE.INTER.VDW>
-19.6977

>  <SCORE.INTER.norm>
-1.07695

>  <SCORE.INTRA>
-1.22212

>  <SCORE.INTRA.DIHEDRAL>
1.5151

>  <SCORE.INTRA.DIHEDRAL.0>
8.98184

>  <SCORE.INTRA.POLAR>
-0.597354

>  <SCORE.INTRA.POLAR.0>
0

>  <SCORE.INTRA.REPUL>
0

>  <SCORE.INTRA.REPUL.0>
0

>  <SCORE.INTRA.VDW>
0.0513332

>  <SCORE.INTRA.VDW.0>
-1.60828

>  <SCORE.INTRA.norm>
-0.0611061

>  <SCORE.RESTR>
0

>  <SCORE.RESTR.CAVITY>
0

>  <SCORE.RESTR.norm>
0

>  <SCORE.SYSTEM>
-0.12788

>  <SCORE.SYSTEM.CONST>
0

>  <SCORE.SYSTEM.DIHEDRAL>
2.36937

>  <SCORE.SYSTEM.POLAR>
-0.587613

>  <SCORE.SYSTEM.REPUL>
0.272834

>  <SCORE.SYSTEM.VDW>
-0.678848

>  <SCORE.SYSTEM.norm>
-0.00639398

>  <SCORE.heavy>
20

>  <SCORE.norm>
-1.14445

$$$$

  rDOCK(R)          3D
libRbt.so/2013.1/901 2013/11/27
 25 26  0  0  0  0  0  0  0  0999 V2000
   -2.4979    1.0241   16.0889 C   0  0  0  0  0  0
   -3.1874    1.3494   14.9054 O   0  0  0  0  0  0
   -3.1617    1.5818   17.3173 C   0  0  0  0  0  0
   -2.8627    0.5284   18.3864 C   0  0  0  0  0  0
   -1.8963    1.0532   19.3789 N   0  0  0  0  0  0
   -2.2183    1.0642   20.7125 C   0  0  0  0  0  0
   -1.3340    1.5733   21.6597 C   0  0  0  0  0  0
   -0.1040    2.0656   21.2285 C   0  0  0  0  0  0
    0.7518    2.5554   22.0681 N   0  0  0  0  0  0
    0.2031    2.0227   19.9101 N   0  0  0  0  0  0
   -0.6592    1.5203   18.9874 C   0  0  0  0  0  0
   -0.2384    1.4904   17.6549 O   0  0  0  0  0  0
   -2.3721   -0.6475   17.7651 O   0  0  0  0  0  0
   -2.4767   -0.4745   16.3713 C   0  0  0  0  0  0
   -1.3068   -1.1829   15.6737 C   0  0  0  0  0  0
   -1.0674   -0.6147   14.4017 O   0  0  0  0  0  0
    0.3941    0.2697   14.4169 P   0  0  0  0  0  0
    1.3019   -0.2206   13.3105 O   0  0  0  0  0  0
    0.0993    1.9274   14.2266 O   0  0  0  0  0  0
    1.1623    0.0216   15.9030 O   0  0  0  0  0  0
   -2.6837    0.9733   14.1368 H   0  0  0  0  0  0
    0.5631    2.6078   23.0951 H   0  0  0  0  0  0
    0.2114    0.6973   17.2194 H   0  0  0  0  0  0
   -0.5303    1.9945   13.4650 H   0  0  0  0  0  0
    1.3927   -0.9416   15.9081 H   0  0  0  0  0  0
  1  2  1  0  0  0
  1  3  1  0  0  0
  3  4  1  0  0  0
  4  5  1  0  0  0
  5  6  1  0  0  0
  6  7  2  0  0  0
  7  8  1  0  0  0
  8  9  2  0  0  0
  8 10  1  0  0  0
 10 11  2  0  0  0
 11 12  1  0  0  0
  4 13  1  0  0  0
 13 14  1  0  0  0
 14 15  1  0  0  0
 15 16  1  0  0  0
 16 17  1  0  0  0
 17 18  2  0  0  0
 17 19  1  0  0  0
 17 20  1  0  0  0
 14  1  1  0  0  0
 11  5  1  0  0  0
  2 21  1  0  0  0
  9 22  1  0  0  0
 12 23  1  0  0  0
 19 24  1  0  0  0
 20 25  1  0  0  0
M  END
>  <CHROM.0>
178.36989125,175.35798365,64.06964866,67.23780447,-59.66953505,-170.96197600
-66.06053659,64.59879298,6.61730822,-176.52326370

>  <CHROM.1>
178.46944105,123.86615025,-86.40706738,-36.80941736,109.09926617,125.47682572
-47.45321405,65.12316789,-0.94721264,0.78950988,17.18899233,1.48653892,-0.15833186
-1.81939113

>  <RI>
4.38658e+07

>  <Rbt.Current_Directory>
/extra/banzai2/j5wagner/CELPP/2016_10_17_rdock_implementation/normal_run/tutorialVideo/tutorial_rdock_implementation/full_week_run/4-docking/5wrn/SMCSS_4g6w_docking

>  <Rbt.Executable>
rbdock ($Id: //depot/dev/client3/rdock/2013.1/src/exe/rbdock.cxx#4 $)

>  <Rbt.Library>
libRbt.so (2013.1, Build901 2013/11/27)

>  <Rbt.Parameter_File>
/home/j5wagner/env_00/source/rDock/rDock_2013.1_src//data/scripts/dock.prm

>  <Rbt.Receptor>
/extra/banzai2/j5wagner/CELPP/2016_10_17_rdock_implementation/normal_run/tutorialVideo/tutorial_rdock_implementation/full_week_run/4-docking/5wrn/SMCSS_4g6w_tech_prep/rDockGridGenInput.prm

>  <SCORE>
-22.8179

>  <SCORE.INTER>
-18.7366

>  <SCORE.INTER.CONST>
1

>  <SCORE.INTER.POLAR>
-3.72458

>  <SCORE.INTER.REPUL>
0.0720536

>  <SCORE.INTER.ROT>
4

>  <SCORE.INTER.VDW>
-15.8333

>  <SCORE.INTER.norm>
-0.936828

>  <SCORE.INTRA>
-0.471216

>  <SCORE.INTRA.DIHEDRAL>
9.29029

>  <SCORE.INTRA.DIHEDRAL.0>
8.98184

>  <SCORE.INTRA.POLAR>
-1.24818

>  <SCORE.INTRA.POLAR.0>
0

>  <SCORE.INTRA.REPUL>
0

>  <SCORE.INTRA.REPUL.0>
0

>  <SCORE.INTRA.VDW>
-0.872542

>  <SCORE.INTRA.VDW.0>
-1.60828

>  <SCORE.INTRA.norm>
-0.0235608

>  <SCORE.RESTR>
0.0101968

>  <SCORE.RESTR.CAVITY>
0.0101968

>  <SCORE.RESTR.norm>
0.000509839

>  <SCORE.SYSTEM>
-3.62032

>  <SCORE.SYSTEM.CONST>
0

>  <SCORE.SYSTEM.DIHEDRAL>
0.957297

>  <SCORE.SYSTEM.POLAR>
-0.832571

>  <SCORE.SYSTEM.VDW>
-1.26823

>  <SCORE.SYSTEM.norm>
-0.181016

>  <SCORE.heavy>
20

>  <SCORE.norm>
-1.1409

$$$$

  rDOCK(R)          3D
libRbt.so/2013.1/901 2013/11/27
 25 26  0  0  0  0  0  0  0  0999 V2000
   -2.9281   -0.2407   17.5811 C   0  0  0  0  0  0
   -3.5805   -0.6959   18.7426 O   0  0  0  0  0  0
   -1.5779   -0.8740   17.3898 C   0  0  0  0  0  0
   -1.4448   -0.9629   15.8678 C   0  0  0  0  0  0
   -0.4224   -0.0095   15.3778 N   0  0  0  0  0  0
   -0.7562    1.3029   15.1570 C   0  0  0  0  0  0
    0.1832    2.2107   14.6756 C   0  0  0  0  0  0
    1.4795    1.7630   14.4295 C   0  0  0  0  0  0
    2.3892    2.5654   13.9757 N   0  0  0  0  0  0
    1.7934    0.4691   14.6775 N   0  0  0  0  0  0
    0.8765   -0.4145   15.1527 C   0  0  0  0  0  0
    1.3050   -1.7204   15.4067 O   0  0  0  0  0  0
   -2.7056   -0.7152   15.2692 O   0  0  0  0  0  0
   -3.6614   -0.6225   16.2995 C   0  0  0  0  0  0
   -4.7371    0.4033   15.9152 C   0  0  0  0  0  0
   -5.4751   -0.0444   14.7958 O   0  0  0  0  0  0
   -7.0421   -0.5256   15.2772 P   0  0  0  0  0  0
   -7.2353   -0.2437   16.7509 O   0  0  0  0  0  0
   -8.2265    0.2851   14.3766 O   0  0  0  0  0  0
   -7.2031   -2.1884   15.0141 O   0  0  0  0  0  0
   -3.1430   -0.2792   19.5305 H   0  0  0  0  0  0
    2.1975    3.5727   13.7716 H   0  0  0  0  0  0
    0.6891   -2.4810   15.6584 H   0  0  0  0  0  0
   -9.0690    0.1611   14.8825 H   0  0  0  0  0  0
   -7.5307   -2.2641   14.0826 H   0  0  0  0  0  0
  1  2  1  0  0  0
  1  3  1  0  0  0
  3  4  1  0  0  0
  4  5  1  0  0  0
  5  6  1  0  0  0
  6  7  2  0  0  0
  7  8  1  0  0  0
  8  9  2  0  0  0
  8 10  1  0  0  0
 10 11  2  0  0  0
 11 12  1  0  0  0
  4 13  1  0  0  0
 13 14  1  0  0  0
 14 15  1  0  0  0
 15 16  1  0  0  0
 16 17  1  0  0  0
 17 18  2  0  0  0
 17 19  1  0  0  0
 17 20  1  0  0  0
 14  1  1  0  0  0
 11  5  1  0  0  0
  2 21  1  0  0  0
  9 22  1  0  0  0
 12 23  1  0  0  0
 19 24  1  0  0  0
 20 25  1  0  0  0
M  END
>  <CHROM.0>
67.15633487,85.54847597,-45.21945310,63.06141555,63.27405735,11.52158659
-59.68708683,-59.72780991,12.45265771,44.70941962

>  <CHROM.1>
74.16189551,-83.41784979,7.81751011,-174.63735469,107.37820721,4.08496111
-163.78371245,-88.67692742,-2.87989290,-0.09378836,15.60102054,-2.98871105
-0.08202358,-0.91347042

>  <RI>
4.38658e+07

>  <Rbt.Current_Directory>
/extra/banzai2/j5wagner/CELPP/2016_10_17_rdock_implementation/normal_run/tutorialVideo/tutorial_rdock_implementation/full_week_run/4-docking/5wrn/SMCSS_4g6w_docking

>  <Rbt.Executable>
rbdock ($Id: //depot/dev/client3/rdock/2013.1/src/exe/rbdock.cxx#4 $)

>  <Rbt.Library>
libRbt.so (2013.1, Build901 2013/11/27)

>  <Rbt.Parameter_File>
/home/j5wagner/env_00/source/rDock/rDock_2013.1_src//data/scripts/dock.prm

>  <Rbt.Receptor>
/extra/banzai2/j5wagner/CELPP/2016_10_17_rdock_implementation/normal_run/tutorialVideo/tutorial_rdock_implementation/full_week_run/4-docking/5wrn/SMCSS_4g6w_tech_prep/rDockGridGenInput.prm

>  <SCORE>
-22.7944

>  <SCORE.INTER>
-22.8553

>  <SCORE.INTER.CONST>
1

>  <SCORE.INTER.POLAR>
-5.72342

>  <SCORE.INTER.REPUL>
0.0288652

>  <SCORE.INTER.ROT>
4

>  <SCORE.INTER.VDW>
-12.94

>  <SCORE.INTER.norm>
-1.14277

>  <SCORE.INTRA>
3.09523

>  <SCORE.INTRA.DIHEDRAL>
4.97704

>  <SCORE.INTRA.DIHEDRAL.0>
8.98184

>  <SCORE.INTRA.POLAR>
0

>  <SCORE.INTRA.POLAR.0>
0

>  <SCORE.INTRA.REPUL>
0

>  <SCORE.INTRA.REPUL.0>
0

>  <SCORE.INTRA.VDW>
0.606707

>  <SCORE.INTRA.VDW.0>
-1.60828

>  <SCORE.INTRA.norm>
0.154761

>  <SCORE.RESTR>
0.330254

>  <SCORE.RESTR.CAVITY>
0.330254

>  <SCORE.RESTR.norm>
0.0165127

>  <SCORE.SYSTEM>
-3.36458

>  <SCORE.SYSTEM.CONST>
0

>  <SCORE.SYSTEM.DIHEDRAL>
6.82896

>  <SCORE.SYSTEM.POLAR>
-1.82934

>  <SCORE.SYSTEM.REPUL>
0.130541

>  <SCORE.SYSTEM.VDW>
-1.21202

>  <SCORE.SYSTEM.norm>
-0.168229

>  <SCORE.heavy>
20

>  <SCORE.norm>
-1.13972

$$$$

  rDOCK(R)          3D
libRbt.so/2013.1/901 2013/11/27
 25 26  0  0  0  0  0  0  0  0999 V2000
   -3.5034    0.7652   16.6572 C   0  0  0  0  0  0
   -4.8246    1.2313   16.5195 O   0  0  0  0  0  0
   -2.8459    0.4898   15.3333 C   0  0  0  0  0  0
   -1.3778    0.8358   15.5922 C   0  0  0  0  0  0
   -0.5475   -0.3909   15.6023 N   0  0  0  0  0  0
   -0.5123   -1.1878   16.7187 C   0  0  0  0  0  0
    0.2784   -2.3331   16.7577 C   0  0  0  0  0  0
    1.0308   -2.6639   15.6325 C   0  0  0  0  0  0
    1.7871   -3.7152   15.6193 N   0  0  0  0  0  0
    0.9622   -1.8764   14.5329 N   0  0  0  0  0  0
    0.1855   -0.7616   14.4946 C   0  0  0  0  0  0
    0.1573   -0.0313   13.3032 O   0  0  0  0  0  0
   -1.2684    1.5391   16.8181 O   0  0  0  0  0  0
   -2.5719    1.7967   17.2852 C   0  0  0  0  0  0
   -2.5910    1.7423   18.8194 C   0  0  0  0  0  0
   -1.5642    2.5500   19.3593 O   0  0  0  0  0  0
   -0.9921    1.8768   20.8215 P   0  0  0  0  0  0
    0.4267    1.3844   20.6391 O   0  0  0  0  0  0
   -1.0488    3.0162   22.0744 O   0  0  0  0  0  0
   -1.9758    0.5648   21.2355 O   0  0  0  0  0  0
   -4.8146    2.0294   15.9289 H   0  0  0  0  0  0
    1.8716   -4.3558   16.4411 H   0  0  0  0  0  0
   -0.0099    0.9639   13.2514 H   0  0  0  0  0  0
   -0.6032    2.5800   22.8439 H   0  0  0  0  0  0
   -2.8411    0.9720   21.4931 H   0  0  0  0  0  0
  1  2  1  0  0  0
  1  3  1  0  0  0
  3  4  1  0  0  0
  4  5  1  0  0  0
  5  6  1  0  0  0
  6  7  2  0  0  0
  7  8  1  0  0  0
  8  9  2  0  0  0
  8 10  1  0  0  0
 10 11  2  0  0  0
 11 12  1  0  0  0
  4 13  1  0  0  0
 13 14  1  0  0  0
 14 15  1  0  0  0
 15 16  1  0  0  0
 16 17  1  0  0  0
 17 18  2  0  0  0
 17 19  1  0  0  0
 17 20  1  0  0  0
 14  1  1  0  0  0
 11  5  1  0  0  0
  2 21  1  0  0  0
  9 22  1  0  0  0
 12 23  1  0  0  0
 19 24  1  0  0  0
 20 25  1  0  0  0
M  END
>  <CHROM.0>
-57.67440772,-64.20606923,-48.03756896,65.36956289,-55.24323882,-174.67400183
-175.52318008,63.88674598,15.88276097,-106.65628715

>  <CHROM.1>
-55.02575588,-79.67642500,29.15464950,170.36780506,-147.83190178,112.10132180
-173.39953448,-70.02647583,-1.07301350,0.42048401,17.50392065,1.88837997
-0.63063804,1.20798777

>  <RI>
4.38658e+07

>  <Rbt.Current_Directory>
/extra/banzai2/j5wagner/CELPP/2016_10_17_rdock_implementation/normal_run/tutorialVideo/tutorial_rdock_implementation/full_week_run/4-docking/5wrn/SMCSS_4g6w_docking

>  <Rbt.Executable>
rbdock ($Id: //depot/dev/client3/rdock/2013.1/src/exe/rbdock.cxx#4 $)

>  <Rbt.Library>
libRbt.so (2013.1, Build901 2013/11/27)

>  <Rbt.Parameter_File>
/home/j5wagner/env_00/source/rDock/rDock_2013.1_src//data/scripts/dock.prm

>  <Rbt.Receptor>
/extra/banzai2/j5wagner/CELPP/2016_10_17_rdock_implementation/normal_run/tutorialVideo/tutorial_rdock_implementation/full_week_run/4-docking/5wrn/SMCSS_4g6w_tech_prep/rDockGridGenInput.prm

>  <SCORE>
-22.7846

>  <SCORE.INTER>
-22.1839

>  <SCORE.INTER.CONST>
1

>  <SCORE.INTER.POLAR>
-5.39651

>  <SCORE.INTER.REPUL>
0

>  <SCORE.INTER.ROT>
4

>  <SCORE.INTER.VDW>
-13.2358

>  <SCORE.INTER.norm>
-1.10919

>  <SCORE.INTRA>
1.4357

>  <SCORE.INTRA.DIHEDRAL>
1.65716

>  <SCORE.INTRA.DIHEDRAL.0>
8.98184

>  <SCORE.INTRA.POLAR>
0

>  <SCORE.INTRA.POLAR.0>
0

>  <SCORE.INTRA.REPUL>
0

>  <SCORE.INTRA.REPUL.0>
0

>  <SCORE.INTRA.VDW>
0.607121

>  <SCORE.INTRA.VDW.0>
-1.60828

>  <SCORE.INTRA.norm>
0.0717849

>  <SCORE.RESTR>
0.648983

>  <SCORE.RESTR.CAVITY>
0.648983

>  <SCORE.RESTR.norm>
0.0324491

>  <SCORE.SYSTEM>
-2.68543

>  <SCORE.SYSTEM.CONST>
0

>  <SCORE.SYSTEM.DIHEDRAL>
5.99207

>  <SCORE.SYSTEM.POLAR>
-1.34465

>  <SCORE.SYSTEM.VDW>
-1.10966

>  <SCORE.SYSTEM.norm>
-0.134271

>  <SCORE.heavy>
20

>  <SCORE.norm>
-1.13923

$$$$

  rDOCK(R)          3D
libRbt.so/2013.1/901 2013/11/27
 25 26  0  0  0  0  0  0  0  0999 V2000
   -3.2448   -1.3853   15.3278 C   0  0  0  0  0  0
   -3.3811   -2.3878   14.3488 O   0  0  0  0  0  0
   -1.8174   -0.9536   15.5192 C   0  0  0  0  0  0
   -1.9440    0.5307   15.8700 C   0  0  0  0  0  0
   -1.5948    0.7617   17.2909 N   0  0  0  0  0  0
   -2.5867    0.9245   18.2248 C   0  0  0  0  0  0
   -2.2808    1.1648   19.5616 C   0  0  0  0  0  0
   -0.9411    1.2277   19.9393 C   0  0  0  0  0  0
   -0.6030    1.4546   21.1687 N   0  0  0  0  0  0
    0.0215    1.0400   19.0054 N   0  0  0  0  0  0
   -0.2789    0.8000   17.7017 C   0  0  0  0  0  0
    0.7842    0.5883   16.8193 O   0  0  0  0  0  0
   -3.2615    0.9709   15.5877 O   0  0  0  0  0  0
   -3.9398   -0.0828   14.9449 C   0  0  0  0  0  0
   -5.4198   -0.0696   15.3533 C   0  0  0  0  0  0
   -6.0995   -1.1780   14.7989 O   0  0  0  0  0  0
   -7.6783   -1.2837   15.4431 P   0  0  0  0  0  0
   -7.7538   -0.5158   16.7443 O   0  0  0  0  0  0
   -8.8195   -0.6744   14.3487 O   0  0  0  0  0  0
   -8.0316   -2.9093   15.7477 O   0  0  0  0  0  0
   -2.9074   -3.2008   14.6659 H   0  0  0  0  0  0
   -1.3081    1.6028   21.9262 H   0  0  0  0  0  0
    1.4488    1.3004   16.5502 H   0  0  0  0  0  0
   -8.9443   -1.3909   13.6763 H   0  0  0  0  0  0
   -8.8717   -2.8890   16.2718 H   0  0  0  0  0  0
  1  2  1  0  0  0
  1  3  1  0  0  0
  3  4  1  0  0  0
  4  5  1  0  0  0
  5  6  1  0  0  0
  6  7  2  0  0  0
  7  8  1  0  0  0
  8  9  2  0  0  0
  8 10  1  0  0  0
 10 11  2  0  0  0
 11 12  1  0  0  0
  4 13  1  0  0  0
 13 14  1  0  0  0
 14 15  1  0  0  0
 15 16  1  0  0  0
 16 17  1  0  0  0
 17 18  2  0  0  0
 17 19  1  0  0  0
 17 20  1  0  0  0
 14  1  1  0  0  0
 11  5  1  0  0  0
  2 21  1  0  0  0
  9 22  1  0  0  0
 12 23  1  0  0  0
 19 24  1  0  0  0
 20 25  1  0  0  0
M  END
>  <CHROM.0>
177.33300108,-56.33796136,-179.02218685,67.74905575,-56.87306022,9.20331833
-178.51872850,-60.35532990,177.96490833,-162.40037695

>  <CHROM.1>
64.32187907,-101.00907682,112.53226419,-55.85030219,171.60300863,-20.25663305
77.91586539,169.50047716,-3.81649067,-0.23263115,16.53339028,-2.61505146
0.12745919,1.18288860

>  <RI>
4.38658e+07

>  <Rbt.Current_Directory>
/extra/banzai2/j5wagner/CELPP/2016_10_17_rdock_implementation/normal_run/tutorialVideo/tutorial_rdock_implementation/full_week_run/4-docking/5wrn/SMCSS_4g6w_docking

>  <Rbt.Executable>
rbdock ($Id: //depot/dev/client3/rdock/2013.1/src/exe/rbdock.cxx#4 $)

>  <Rbt.Library>
libRbt.so (2013.1, Build901 2013/11/27)

>  <Rbt.Parameter_File>
/home/j5wagner/env_00/source/rDock/rDock_2013.1_src//data/scripts/dock.prm

>  <Rbt.Receptor>
/extra/banzai2/j5wagner/CELPP/2016_10_17_rdock_implementation/normal_run/tutorialVideo/tutorial_rdock_implementation/full_week_run/4-docking/5wrn/SMCSS_4g6w_tech_prep/rDockGridGenInput.prm

>  <SCORE>
-22.6806

>  <SCORE.INTER>
-24.1628

>  <SCORE.INTER.CONST>
1

>  <SCORE.INTER.POLAR>
-3.82937

>  <SCORE.INTER.REPUL>
0.0224439

>  <SCORE.INTER.ROT>
4

>  <SCORE.INTER.VDW>
-20.6552

>  <SCORE.INTER.norm>
-1.20814

>  <SCORE.INTRA>
1.21692

>  <SCORE.INTRA.DIHEDRAL>
0.649098

>  <SCORE.INTRA.DIHEDRAL.0>
8.98184

>  <SCORE.INTRA.POLAR>
0

>  <SCORE.INTRA.POLAR.0>
0

>  <SCORE.INTRA.REPUL>
0

>  <SCORE.INTRA.REPUL.0>
0

>  <SCORE.INTRA.VDW>
0.892374

>  <SCORE.INTRA.VDW.0>
-1.60828

>  <SCORE.INTRA.norm>
0.0608461

>  <SCORE.RESTR>
0

>  <SCORE.RESTR.CAVITY>
0

>  <SCORE.RESTR.norm>
0

>  <SCORE.SYSTEM>
0.265303

>  <SCORE.SYSTEM.CONST>
0

>  <SCORE.SYSTEM.DIHEDRAL>
1.03424

>  <SCORE.SYSTEM.POLAR>
-0.823615

>  <SCORE.SYSTEM.REPUL>
0.46438

>  <SCORE.SYSTEM.VDW>
0.226572

>  <SCORE.SYSTEM.norm>
0.0132652

>  <SCORE.heavy>
20

>  <SCORE.norm>
-1.13403

$$$$

  rDOCK(R)          3D
libRbt.so/2013.1/901 2013/11/27
 25 26  0  0  0  0  0  0  0  0999 V2000
   -2.3803    0.7598   15.3200 C   0  0  0  0  0  0
   -1.3652    1.4459   14.6265 O   0  0  0  0  0  0
   -2.9310   -0.4015   14.5399 C   0  0  0  0  0  0
   -3.2889   -1.4166   15.6278 C   0  0  0  0  0  0
   -4.7589   -1.5516   15.7510 N   0  0  0  0  0  0
   -5.5860   -0.6391   15.1461 C   0  0  0  0  0  0
   -6.9697   -0.7344   15.2676 C   0  0  0  0  0  0
   -7.5042   -1.7849   16.0106 C   0  0  0  0  0  0
   -8.7841   -1.9153   16.1593 N   0  0  0  0  0  0
   -6.6701   -2.6880   16.5789 N   0  0  0  0  0  0
   -5.3197   -2.5966   16.4547 C   0  0  0  0  0  0
   -4.5444   -3.5948   17.0514 O   0  0  0  0  0  0
   -2.7060   -1.0160   16.8563 O   0  0  0  0  0  0
   -1.8817    0.0968   16.5998 C   0  0  0  0  0  0
   -1.9138    1.0513   17.8019 C   0  0  0  0  0  0
   -1.2541    0.4766   18.9121 O   0  0  0  0  0  0
   -1.8178    1.1818   20.3625 P   0  0  0  0  0  0
   -2.8253    0.2652   21.0209 O   0  0  0  0  0  0
   -0.5339    1.4838   21.4264 O   0  0  0  0  0  0
   -2.5742    2.6487   19.9937 O   0  0  0  0  0  0
   -1.7167    1.7062   13.7351 H   0  0  0  0  0  0
   -9.4688   -1.2468   15.7383 H   0  0  0  0  0  0
   -3.5471   -3.6927   16.9213 H   0  0  0  0  0  0
    0.0587    2.1161   20.9468 H   0  0  0  0  0  0
   -3.4033    2.3902   19.5175 H   0  0  0  0  0  0
  1  2  1  0  0  0
  1  3  1  0  0  0
  3  4  1  0  0  0
  4  5  1  0  0  0
  5  6  1  0  0  0
  6  7  2  0  0  0
  7  8  1  0  0  0
  8  9  2  0  0  0
  8 10  1  0  0  0
 10 11  2  0  0  0
 11 12  1  0  0  0
  4 13  1  0  0  0
 13 14  1  0  0  0
 14 15  1  0  0  0
 15 16  1  0  0  0
 16 17  1  0  0  0
 17 18  2  0  0  0
 17 19  1  0  0  0
 17 20  1  0  0  0
 14  1  1  0  0  0
 11  5  1  0  0  0
  2 21  1  0  0  0
  9 22  1  0  0  0
 12 23  1  0  0  0
 19 24  1  0  0  0
 20 25  1  0  0  0
M  END
>  <CHROM.0>
-178.91741751,-56.99790607,-47.69126490,-62.73915826,63.86646307,-7.89307536
-64.74656135,-65.31850502,5.28349646,-158.49663409

>  <CHROM.1>
54.06092985,-12.92084979,-7.82957553,-170.78565496,-156.68761129,100.46217837
60.86704943,69.51201778,-3.56196396,-0.29184495,17.36366065,-0.68026136,-0.52432510
-1.66864860

>  <RI>
4.38658e+07

>  <Rbt.Current_Directory>
/extra/banzai2/j5wagner/CELPP/2016_10_17_rdock_implementation/normal_run/tutorialVideo/tutorial_rdock_implementation/full_week_run/4-docking/5wrn/SMCSS_4g6w_docking

>  <Rbt.Executable>
rbdock ($Id: //depot/dev/client3/rdock/2013.1/src/exe/rbdock.cxx#4 $)

>  <Rbt.Library>
libRbt.so (2013.1, Build901 2013/11/27)

>  <Rbt.Parameter_File>
/home/j5wagner/env_00/source/rDock/rDock_2013.1_src//data/scripts/dock.prm

>  <Rbt.Receptor>
/extra/banzai2/j5wagner/CELPP/2016_10_17_rdock_implementation/normal_run/tutorialVideo/tutorial_rdock_implementation/full_week_run/4-docking/5wrn/SMCSS_4g6w_tech_prep/rDockGridGenInput.prm

>  <SCORE>
-22.0264

>  <SCORE.INTER>
-21.4146

>  <SCORE.INTER.CONST>
1

>  <SCORE.INTER.POLAR>
-3.53188

>  <SCORE.INTER.REPUL>
0

>  <SCORE.INTER.ROT>
4

>  <SCORE.INTER.VDW>
-18.8062

>  <SCORE.INTER.norm>
-1.07073

>  <SCORE.INTRA>
2.22349

>  <SCORE.INTRA.DIHEDRAL>
-1.59146

>  <SCORE.INTRA.DIHEDRAL.0>
8.98184

>  <SCORE.INTRA.POLAR>
0

>  <SCORE.INTRA.POLAR.0>
0

>  <SCORE.INTRA.REPUL>
0

>  <SCORE.INTRA.REPUL.0>
0

>  <SCORE.INTRA.VDW>
3.01923

>  <SCORE.INTRA.VDW.0>
-1.60828

>  <SCORE.INTRA.norm>
0.111175

>  <SCORE.RESTR>
0.557754

>  <SCORE.RESTR.CAVITY>
0.557754

>  <SCORE.RESTR.norm>
0.0278877

>  <SCORE.SYSTEM>
-3.39303

>  <SCORE.SYSTEM.CONST>
0

>  <SCORE.SYSTEM.DIHEDRAL>
1.91173

>  <SCORE.SYSTEM.POLAR>
-1.07994

>  <SCORE.SYSTEM.VDW>
-0.677113

>  <SCORE.SYSTEM.norm>
-0.169652

>  <SCORE.heavy>
20

>  <SCORE.norm>
-1.10132

$$$$

  rDOCK(R)          3D
libRbt.so/2013.1/901 2013/11/27
 25 26  0  0  0  0  0  0  0  0999 V2000
   -3.1374   -1.5044   15.7754 C   0  0  0  0  0  0
   -3.2367   -2.5434   14.8307 O   0  0  0  0  0  0
   -1.7123   -1.1473   16.0953 C   0  0  0  0  0  0
   -1.7806    0.3570   16.3683 C   0  0  0  0  0  0
   -1.5626    0.6357   17.8068 N   0  0  0  0  0  0
   -2.6258    0.6447   18.6740 C   0  0  0  0  0  0
   -2.4465    0.9262   20.0257 C   0  0  0  0  0  0
   -1.1589    1.1905   20.4877 C   0  0  0  0  0  0
   -0.9388    1.4638   21.7344 N   0  0  0  0  0  0
   -0.1207    1.1524   19.6188 N   0  0  0  0  0  0
   -0.2969    0.8721   18.3006 C   0  0  0  0  0  0
    0.8406    0.8253   17.4897 O   0  0  0  0  0  0
   -3.0329    0.8587   15.9329 O   0  0  0  0  0  0
   -3.7075   -0.1838   15.2683 C   0  0  0  0  0  0
   -5.2173   -0.0652   15.5204 C   0  0  0  0  0  0
   -5.9271   -1.0143   14.7500 O   0  0  0  0  0  0
   -7.1175   -1.7790   15.7074 P   0  0  0  0  0  0
   -8.1033   -2.5041   14.8179 O   0  0  0  0  0  0
   -6.4103   -2.8716   16.7924 O   0  0  0  0  0  0
   -7.9455   -0.5969   16.5891 O   0  0  0  0  0  0
   -2.8589   -3.3688   15.2329 H   0  0  0  0  0  0
   -1.7056    1.5022   22.4440 H   0  0  0  0  0  0
    0.8211    0.6554   16.4938 H   0  0  0  0  0  0
   -6.0175   -3.5834   16.2266 H   0  0  0  0  0  0
   -8.4357   -1.1018   17.2860 H   0  0  0  0  0  0
  1  2  1  0  0  0
  1  3  1  0  0  0
  3  4  1  0  0  0
  4  5  1  0  0  0
  5  6  1  0  0  0
  6  7  2  0  0  0
  7  8  1  0  0  0
  8  9  2  0  0  0
  8 10  1  0  0  0
 10 11  2  0  0  0
 11 12  1  0  0  0
  4 13  1  0  0  0
 13 14  1  0  0  0
 14 15  1  0  0  0
 15 16  1  0  0  0
 16 17  1  0  0  0
 17 18  2  0  0  0
 17 19  1  0  0  0
 17 20  1  0  0  0
 14  1  1  0  0  0
 11  5  1  0  0  0
  2 21  1  0  0  0
  9 22  1  0  0  0
 12 23  1  0  0  0
 19 24  1  0  0  0
 20 25  1  0  0  0
M  END
>  <CHROM.0>
54.03998140,175.22853128,-162.94509975,65.71238470,64.73659300,8.52513283
71.85315393,62.80275859,-173.31895389,-170.20973254

>  <CHROM.1>
64.97626567,-88.42003481,2.52711158,-66.41990760,135.00017921,164.89122261
-65.85633418,-165.27784014,-3.61188212,-0.42365272,16.96987814,-2.52385782
0.20393815,1.20493944

>  <RI>
4.38658e+07

>  <Rbt.Current_Directory>
/extra/banzai2/j5wagner/CELPP/2016_10_17_rdock_implementation/normal_run/tutorialVideo/tutorial_rdock_implementation/full_week_run/4-docking/5wrn/SMCSS_4g6w_docking

>  <Rbt.Executable>
rbdock ($Id: //depot/dev/client3/rdock/2013.1/src/exe/rbdock.cxx#4 $)

>  <Rbt.Library>
libRbt.so (2013.1, Build901 2013/11/27)

>  <Rbt.Parameter_File>
/home/j5wagner/env_00/source/rDock/rDock_2013.1_src//data/scripts/dock.prm

>  <Rbt.Receptor>
/extra/banzai2/j5wagner/CELPP/2016_10_17_rdock_implementation/normal_run/tutorialVideo/tutorial_rdock_implementation/full_week_run/4-docking/5wrn/SMCSS_4g6w_tech_prep/rDockGridGenInput.prm

>  <SCORE>
-21.9189

>  <SCORE.INTER>
-23.2483

>  <SCORE.INTER.CONST>
1

>  <SCORE.INTER.POLAR>
-4.24598

>  <SCORE.INTER.REPUL>
0.0603457

>  <SCORE.INTER.ROT>
4

>  <SCORE.INTER.VDW>
-18.5137

>  <SCORE.INTER.norm>
-1.16241

>  <SCORE.INTRA>
-0.070296

>  <SCORE.INTRA.DIHEDRAL>
0.671294

>  <SCORE.INTRA.DIHEDRAL.0>
8.98184

>  <SCORE.INTRA.POLAR>
0

>  <SCORE.INTRA.POLAR.0>
0

>  <SCORE.INTRA.REPUL>
0

>  <SCORE.INTRA.REPUL.0>
0

>  <SCORE.INTRA.VDW>
-0.405943

>  <SCORE.INTRA.VDW.0>
-1.60828

>  <SCORE.INTRA.norm>
-0.0035148

>  <SCORE.RESTR>
0

>  <SCORE.RESTR.CAVITY>
0

>  <SCORE.RESTR.norm>
0

>  <SCORE.SYSTEM>
1.39971

>  <SCORE.SYSTEM.CONST>
0

>  <SCORE.SYSTEM.DIHEDRAL>
2.80525

>  <SCORE.SYSTEM.POLAR>
-0.856545

>  <SCORE.SYSTEM.REPUL>
0.229493

>  <SCORE.SYSTEM.VDW>
1.76188

>  <SCORE.SYSTEM.norm>
0.0699857

>  <SCORE.heavy>
20

>  <SCORE.norm>
-1.09594

$$$$

  rDOCK(R)          3D
libRbt.so/2013.1/901 2013/11/27
 25 26  0  0  0  0  0  0  0  0999 V2000
   -2.2036   -0.9314   17.6884 C   0  0  0  0  0  0
   -3.5340   -0.6922   18.0819 O   0  0  0  0  0  0
   -2.1084   -1.5928   16.3415 C   0  0  0  0  0  0
   -0.8137   -1.0201   15.7603 C   0  0  0  0  0  0
    0.2365   -2.0631   15.7005 N   0  0  0  0  0  0
    0.8182   -2.5197   16.8562 C   0  0  0  0  0  0
    1.8226   -3.4833   16.8214 C   0  0  0  0  0  0
    2.2227   -3.9867   15.5853 C   0  0  0  0  0  0
    3.1565   -4.8797   15.4975 N   0  0  0  0  0  0
    1.6179   -3.5395   14.4591 N   0  0  0  0  0  0
    0.6338   -2.6027   14.4953 C   0  0  0  0  0  0
    0.0495   -2.2284   13.2819 O   0  0  0  0  0  0
   -0.3945    0.0854   16.5425 O   0  0  0  0  0  0
   -1.4034    0.3515   17.4885 C   0  0  0  0  0  0
   -0.7684    0.8522   18.7936 C   0  0  0  0  0  0
   -1.7065    0.8147   19.8504 O   0  0  0  0  0  0
   -1.0544    1.5573   21.2439 P   0  0  0  0  0  0
    0.4338    1.7633   21.0666 O   0  0  0  0  0  0
   -1.8088    3.0442   21.5455 O   0  0  0  0  0  0
   -1.3099    0.5395   22.5703 O   0  0  0  0  0  0
   -4.0879   -1.4657   17.7978 H   0  0  0  0  0  0
    3.6510   -5.2586   16.3371 H   0  0  0  0  0  0
   -0.6822   -1.5370   13.1938 H   0  0  0  0  0  0
   -2.6473    2.8192   22.0224 H   0  0  0  0  0  0
   -2.1327    0.8874   22.9980 H   0  0  0  0  0  0
  1  2  1  0  0  0
  1  3  1  0  0  0
  3  4  1  0  0  0
  4  5  1  0  0  0
  5  6  1  0  0  0
  6  7  2  0  0  0
  7  8  1  0  0  0
  8  9  2  0  0  0
  8 10  1  0  0  0
 10 11  2  0  0  0
 11 12  1  0  0  0
  4 13  1  0  0  0
 13 14  1  0  0  0
 14 15  1  0  0  0
 15 16  1  0  0  0
 16 17  1  0  0  0
 17 18  2  0  0  0
 17 19  1  0  0  0
 17 20  1  0  0  0
 14  1  1  0  0  0
 11  5  1  0  0  0
  2 21  1  0  0  0
  9 22  1  0  0  0
 12 23  1  0  0  0
 19 24  1  0  0  0
 20 25  1  0  0  0
M  END
>  <CHROM.0>
178.53167863,85.18846979,-48.43641652,64.92914982,-177.88700909,-176.22042696
-177.36992307,-66.15915285,178.74523241,-167.19910296

>  <CHROM.1>
38.57551908,-71.14523589,1.08315457,-45.90908277,-172.78640280,-12.80576285
82.15463442,-96.68979432,-0.42304096,-0.77626685,17.81665936,1.94251985,-0.51121469
1.09538916

>  <RI>
4.38658e+07

>  <Rbt.Current_Directory>
/extra/banzai2/j5wagner/CELPP/2016_10_17_rdock_implementation/normal_run/tutorialVideo/tutorial_rdock_implementation/full_week_run/4-docking/5wrn/SMCSS_4g6w_docking

>  <Rbt.Executable>
rbdock ($Id: //depot/dev/client3/rdock/2013.1/src/exe/rbdock.cxx#4 $)

>  <Rbt.Library>
libRbt.so (2013.1, Build901 2013/11/27)

>  <Rbt.Parameter_File>
/home/j5wagner/env_00/source/rDock/rDock_2013.1_src//data/scripts/dock.prm

>  <Rbt.Receptor>
/extra/banzai2/j5wagner/CELPP/2016_10_17_rdock_implementation/normal_run/tutorialVideo/tutorial_rdock_implementation/full_week_run/4-docking/5wrn/SMCSS_4g6w_tech_prep/rDockGridGenInput.prm

>  <SCORE>
-21.6761

>  <SCORE.INTER>
-17.4569

>  <SCORE.INTER.CONST>
1

>  <SCORE.INTER.POLAR>
-3.9251

>  <SCORE.INTER.REPUL>
0.247162

>  <SCORE.INTER.ROT>
4

>  <SCORE.INTER.VDW>
-14.7474

>  <SCORE.INTER.norm>
-0.872847

>  <SCORE.INTRA>
1.92715

>  <SCORE.INTRA.DIHEDRAL>
0.974005

>  <SCORE.INTRA.DIHEDRAL.0>
8.98184

>  <SCORE.INTRA.POLAR>
0

>  <SCORE.INTRA.POLAR.0>
0

>  <SCORE.INTRA.REPUL>
0

>  <SCORE.INTRA.REPUL.0>
0

>  <SCORE.INTRA.VDW>
1.44014

>  <SCORE.INTRA.VDW.0>
-1.60828

>  <SCORE.INTRA.norm>
0.0963573

>  <SCORE.RESTR>
0.564705

>  <SCORE.RESTR.CAVITY>
0.564705

>  <SCORE.RESTR.norm>
0.0282353

>  <SCORE.SYSTEM>
-6.71102

>  <SCORE.SYSTEM.CONST>
0

>  <SCORE.SYSTEM.DIHEDRAL>
3.98859

>  <SCORE.SYSTEM.POLAR>
-2.09586

>  <SCORE.SYSTEM.VDW>
-1.5794

>  <SCORE.SYSTEM.norm>
-0.335551

>  <SCORE.heavy>
20

>  <SCORE.norm>
-1.08381

$$$$

  rDOCK(R)          3D
libRbt.so/2013.1/901 2013/11/27
 25 26  0  0  0  0  0  0  0  0999 V2000
   -1.4555    0.5064   18.5483 C   0  0  0  0  0  0
   -0.6927    0.9936   19.6266 O   0  0  0  0  0  0
   -2.9045    0.8965   18.6415 C   0  0  0  0  0  0
   -3.3182    1.0612   17.1774 C   0  0  0  0  0  0
   -4.2378   -0.0265   16.7704 N   0  0  0  0  0  0
   -3.8046   -1.3284   16.7692 C   0  0  0  0  0  0
   -4.6452   -2.3636   16.3692 C   0  0  0  0  0  0
   -5.9458   -2.0542   15.9768 C   0  0  0  0  0  0
   -6.7656   -2.9793   15.5903 N   0  0  0  0  0  0
   -6.3600   -0.7652   16.0089 N   0  0  0  0  0  0
   -5.5398    0.2437   16.4049 C   0  0  0  0  0  0
   -6.0693    1.5369   16.4337 O   0  0  0  0  0  0
   -2.1601    1.0861   16.3603 O   0  0  0  0  0  0
   -1.0350    1.0992   17.2074 C   0  0  0  0  0  0
    0.1113    0.3127   16.5558 C   0  0  0  0  0  0
   -0.1502   -1.0758   16.5979 O   0  0  0  0  0  0
    0.9508   -1.9135   15.5956 P   0  0  0  0  0  0
    0.9212   -3.3902   15.9229 O   0  0  0  0  0  0
    0.5770   -1.6796   13.9595 O   0  0  0  0  0  0
    2.5079   -1.3213   15.8872 O   0  0  0  0  0  0
   -0.7670    1.9837   19.6399 H   0  0  0  0  0  0
   -6.4947   -3.9882   15.5511 H   0  0  0  0  0  0
   -5.6255    2.3218   16.8898 H   0  0  0  0  0  0
   -0.3888   -1.8844   13.8809 H   0  0  0  0  0  0
    2.4640   -0.3653   15.6321 H   0  0  0  0  0  0
  1  2  1  0  0  0
  1  3  1  0  0  0
  3  4  1  0  0  0
  4  5  1  0  0  0
  5  6  1  0  0  0
  6  7  2  0  0  0
  7  8  1  0  0  0
  8  9  2  0  0  0
  8 10  1  0  0  0
 10 11  2  0  0  0
 11 12  1  0  0  0
  4 13  1  0  0  0
 13 14  1  0  0  0
 14 15  1  0  0  0
 15 16  1  0  0  0
 16 17  1  0  0  0
 17 18  2  0  0  0
 17 19  1  0  0  0
 17 20  1  0  0  0
 14  1  1  0  0  0
 11  5  1  0  0  0
  2 21  1  0  0  0
  9 22  1  0  0  0
 12 23  1  0  0  0
 19 24  1  0  0  0
 20 25  1  0  0  0
M  END
>  <CHROM.0>
175.79812612,85.70076602,-49.79860553,65.16174678,65.45234314,-171.66797898
-64.78124008,-63.09338805,-173.80641935,172.07771908

>  <CHROM.1>
-58.87604853,-63.39634541,-13.06495928,46.77659587,168.19157006,164.75042379
-50.41237313,-61.88964928,-2.17600439,-0.63075062,16.54472927,-0.13466203
-0.01949152,0.63411390

>  <RI>
4.38658e+07

>  <Rbt.Current_Directory>
/extra/banzai2/j5wagner/CELPP/2016_10_17_rdock_implementation/normal_run/tutorialVideo/tutorial_rdock_implementation/full_week_run/4-docking/5wrn/SMCSS_4g6w_docking

>  <Rbt.Executable>
rbdock ($Id: //depot/dev/client3/rdock/2013.1/src/exe/rbdock.cxx#4 $)

>  <Rbt.Library>
libRbt.so (2013.1, Build901 2013/11/27)

>  <Rbt.Parameter_File>
/home/j5wagner/env_00/source/rDock/rDock_2013.1_src//data/scripts/dock.prm

>  <Rbt.Receptor>
/extra/banzai2/j5wagner/CELPP/2016_10_17_rdock_implementation/normal_run/tutorialVideo/tutorial_rdock_implementation/full_week_run/4-docking/5wrn/SMCSS_4g6w_tech_prep/rDockGridGenInput.prm

>  <SCORE>
-21.5612

>  <SCORE.INTER>
-12.9203

>  <SCORE.INTER.CONST>
1

>  <SCORE.INTER.POLAR>
-2.87817

>  <SCORE.INTER.REPUL>
0.127934

>  <SCORE.INTER.ROT>
4

>  <SCORE.INTER.VDW>
-13.1742

>  <SCORE.INTER.norm>
-0.646015

>  <SCORE.INTRA>
-1.85793

>  <SCORE.INTRA.DIHEDRAL>
-4.47721

>  <SCORE.INTRA.DIHEDRAL.0>
8.98184

>  <SCORE.INTRA.POLAR>
0

>  <SCORE.INTRA.POLAR.0>
0

>  <SCORE.INTRA.REPUL>
0

>  <SCORE.INTRA.REPUL.0>
0

>  <SCORE.INTRA.VDW>
0.380679

>  <SCORE.INTRA.VDW.0>
-1.60828

>  <SCORE.INTRA.norm>
-0.0928964

>  <SCORE.RESTR>
0

>  <SCORE.RESTR.CAVITY>
0

>  <SCORE.RESTR.norm>
0

>  <SCORE.SYSTEM>
-6.78299

>  <SCORE.SYSTEM.CONST>
0

>  <SCORE.SYSTEM.DIHEDRAL>
3.94922

>  <SCORE.SYSTEM.POLAR>
-2.11425

>  <SCORE.SYSTEM.VDW>
-1.56914

>  <SCORE.SYSTEM.norm>
-0.33915

>  <SCORE.heavy>
20

>  <SCORE.norm>
-1.07806

$$$$

  rDOCK(R)          3D
libRbt.so/2013.1/901 2013/11/27
 25 26  0  0  0  0  0  0  0  0999 V2000
   -2.8842    1.2807   17.4676 C   0  0  0  0  0  0
   -2.7055    1.9853   18.6733 O   0  0  0  0  0  0
   -4.3293    0.9804   17.1816 C   0  0  0  0  0  0
   -4.4039    1.0383   15.6541 C   0  0  0  0  0  0
   -4.6132   -0.3158   15.0911 N   0  0  0  0  0  0
   -3.5604   -1.0007   14.5386 C   0  0  0  0  0  0
   -3.7394   -2.2651   13.9840 C   0  0  0  0  0  0
   -5.0123   -2.8312   14.0086 C   0  0  0  0  0  0
   -5.2334   -4.0020   13.5009 N   0  0  0  0  0  0
   -6.0320   -2.1477   14.5807 N   0  0  0  0  0  0
   -5.8543   -0.9157   15.1266 C   0  0  0  0  0  0
   -6.9615   -0.3041   15.7214 O   0  0  0  0  0  0
   -3.2185    1.6270   15.1464 O   0  0  0  0  0  0
   -2.4603    2.0835   16.2421 C   0  0  0  0  0  0
   -0.9640    1.9312   15.9339 C   0  0  0  0  0  0
   -0.7453    0.8523   15.0472 O   0  0  0  0  0  0
    0.8934    0.3718   15.0965 P   0  0  0  0  0  0
    1.3292    0.1813   16.5327 O   0  0  0  0  0  0
    1.1283   -1.0647   14.2290 O   0  0  0  0  0  0
    1.8364    1.5891   14.3972 O   0  0  0  0  0  0
   -3.2431    1.5390   19.3788 H   0  0  0  0  0  0
   -4.4795   -4.5699   13.0513 H   0  0  0  0  0  0
   -7.9092   -0.6457   15.6424 H   0  0  0  0  0  0
    0.3978   -1.6671   14.5196 H   0  0  0  0  0  0
    1.8555    1.3678   13.4321 H   0  0  0  0  0  0
  1  2  1  0  0  0
  1  3  1  0  0  0
  3  4  1  0  0  0
  4  5  1  0  0  0
  5  6  1  0  0  0
  6  7  2  0  0  0
  7  8  1  0  0  0
  8  9  2  0  0  0
  8 10  1  0  0  0
 10 11  2  0  0  0
 11 12  1  0  0  0
  4 13  1  0  0  0
 13 14  1  0  0  0
 14 15  1  0  0  0
 15 16  1  0  0  0
 16 17  1  0  0  0
 17 18  2  0  0  0
 17 19  1  0  0  0
 17 20  1  0  0  0
 14  1  1  0  0  0
 11  5  1  0  0  0
  2 21  1  0  0  0
  9 22  1  0  0  0
 12 23  1  0  0  0
 19 24  1  0  0  0
 20 25  1  0  0  0
M  END
>  <CHROM.0>
-176.27050380,-54.82119991,-51.06538472,179.86811039,-172.91977633,-172.24350436
-89.87554438,63.69604068,24.37343118,175.19005147

>  <CHROM.1>
47.10990082,-102.07675848,170.18441587,90.75616575,-161.99692951,49.64256653
-46.38069638,-88.26144614,-2.55311332,0.01771545,15.40779015,0.32516176,0.16123200
0.67383866

>  <RI>
4.38658e+07

>  <Rbt.Current_Directory>
/extra/banzai2/j5wagner/CELPP/2016_10_17_rdock_implementation/normal_run/tutorialVideo/tutorial_rdock_implementation/full_week_run/4-docking/5wrn/SMCSS_4g6w_docking

>  <Rbt.Executable>
rbdock ($Id: //depot/dev/client3/rdock/2013.1/src/exe/rbdock.cxx#4 $)

>  <Rbt.Library>
libRbt.so (2013.1, Build901 2013/11/27)

>  <Rbt.Parameter_File>
/home/j5wagner/env_00/source/rDock/rDock_2013.1_src//data/scripts/dock.prm

>  <Rbt.Receptor>
/extra/banzai2/j5wagner/CELPP/2016_10_17_rdock_implementation/normal_run/tutorialVideo/tutorial_rdock_implementation/full_week_run/4-docking/5wrn/SMCSS_4g6w_tech_prep/rDockGridGenInput.prm

>  <SCORE>
-21.2733

>  <SCORE.INTER>
-20.196

>  <SCORE.INTER.CONST>
1

>  <SCORE.INTER.POLAR>
-4.92821

>  <SCORE.INTER.REPUL>
0.082107

>  <SCORE.INTER.ROT>
4

>  <SCORE.INTER.VDW>
-13.2506

>  <SCORE.INTER.norm>
-1.0098

>  <SCORE.INTRA>
0.518304

>  <SCORE.INTRA.DIHEDRAL>
0.202612

>  <SCORE.INTRA.DIHEDRAL.0>
8.98184

>  <SCORE.INTRA.POLAR>
0

>  <SCORE.INTRA.POLAR.0>
0

>  <SCORE.INTRA.REPUL>
0

>  <SCORE.INTRA.REPUL.0>
0

>  <SCORE.INTRA.VDW>
0.416997

>  <SCORE.INTRA.VDW.0>
-1.60828

>  <SCORE.INTRA.norm>
0.0259152

>  <SCORE.RESTR>
0.585455

>  <SCORE.RESTR.CAVITY>
0.585455

>  <SCORE.RESTR.norm>
0.0292727

>  <SCORE.SYSTEM>
-2.18106

>  <SCORE.SYSTEM.CONST>
0

>  <SCORE.SYSTEM.DIHEDRAL>
5.25642

>  <SCORE.SYSTEM.POLAR>
-1.1518

>  <SCORE.SYSTEM.VDW>
-0.89316

>  <SCORE.SYSTEM.norm>
-0.109053

>  <SCORE.heavy>
20

>  <SCORE.norm>
-1.06366

$$$$

  rDOCK(R)          3D
libRbt.so/2013.1/901 2013/11/27
 25 26  0  0  0  0  0  0  0  0999 V2000
   -3.4745    1.1896   16.7271 C   0  0  0  0  0  0
   -4.8302    1.5640   16.6654 O   0  0  0  0  0  0
   -2.9055    0.8511   15.3772 C   0  0  0  0  0  0
   -1.4476    1.3032   15.4878 C   0  0  0  0  0  0
   -0.5402    0.1326   15.5190 N   0  0  0  0  0  0
   -0.5621   -0.7256   16.5893 C   0  0  0  0  0  0
    0.2974   -1.8192   16.6494 C   0  0  0  0  0  0
    1.1794   -2.0344   15.5925 C   0  0  0  0  0  0
    2.0035   -3.0334   15.6021 N   0  0  0  0  0  0
    1.1671   -1.1886   14.5348 N   0  0  0  0  0  0
    0.3235   -0.1246   14.4752 C   0  0  0  0  0  0
    0.3644    0.6722   13.3276 O   0  0  0  0  0  0
   -1.2894    2.1055   16.6457 O   0  0  0  0  0  0
   -2.5667    2.3208   17.1987 C   0  0  0  0  0  0
   -2.4626    2.3855   18.7292 C   0  0  0  0  0  0
   -1.8831    1.2015   19.2395 O   0  0  0  0  0  0
   -1.1940    1.4969   20.7746 P   0  0  0  0  0  0
    0.3148    1.4401   20.6792 O   0  0  0  0  0  0
   -1.6758    3.0072   21.3728 O   0  0  0  0  0  0
   -1.7184    0.2964   21.8442 O   0  0  0  0  0  0
   -5.0933    1.9324   17.5491 H   0  0  0  0  0  0
    2.0492   -3.7152   16.3933 H   0  0  0  0  0  0
    1.1239    0.6688   12.6611 H   0  0  0  0  0  0
   -2.4658    2.8226   21.9411 H   0  0  0  0  0  0
   -2.3211    0.7674   22.4733 H   0  0  0  0  0  0
  1  2  1  0  0  0
  1  3  1  0  0  0
  3  4  1  0  0  0
  4  5  1  0  0  0
  5  6  1  0  0  0
  6  7  2  0  0  0
  7  8  1  0  0  0
  8  9  2  0  0  0
  8 10  1  0  0  0
 10 11  2  0  0  0
 11 12  1  0  0  0
  4 13  1  0  0  0
 13 14  1  0  0  0
 14 15  1  0  0  0
 15 16  1  0  0  0
 16 17  1  0  0  0
 17 18  2  0  0  0
 17 19  1  0  0  0
 17 20  1  0  0  0
 14  1  1  0  0  0
 11  5  1  0  0  0
  2 21  1  0  0  0
  9 22  1  0  0  0
 12 23  1  0  0  0
 19 24  1  0  0  0
 20 25  1  0  0  0
M  END
>  <CHROM.0>
175.19799957,170.77601124,179.88713778,68.48525914,-178.51985219,170.53803717
-163.78732253,-177.90417549,174.51362007,160.97653202

>  <CHROM.1>
-169.62434929,-66.75750129,163.51030258,62.51803913,157.03176483,-109.89650938
94.30664363,-110.86615179,-1.09558826,0.66789352,17.46943502,2.00665106,-0.65247796
1.41325202

>  <RI>
4.38658e+07

>  <Rbt.Current_Directory>
/extra/banzai2/j5wagner/CELPP/2016_10_17_rdock_implementation/normal_run/tutorialVideo/tutorial_rdock_implementation/full_week_run/4-docking/5wrn/SMCSS_4g6w_docking

>  <Rbt.Executable>
rbdock ($Id: //depot/dev/client3/rdock/2013.1/src/exe/rbdock.cxx#4 $)

>  <Rbt.Library>
libRbt.so (2013.1, Build901 2013/11/27)

>  <Rbt.Parameter_File>
/home/j5wagner/env_00/source/rDock/rDock_2013.1_src//data/scripts/dock.prm

>  <Rbt.Receptor>
/extra/banzai2/j5wagner/CELPP/2016_10_17_rdock_implementation/normal_run/tutorialVideo/tutorial_rdock_implementation/full_week_run/4-docking/5wrn/SMCSS_4g6w_tech_prep/rDockGridGenInput.prm

>  <SCORE>
-21.2584

>  <SCORE.INTER>
-24.3126

>  <SCORE.INTER.CONST>
1

>  <SCORE.INTER.POLAR>
-5.86592

>  <SCORE.INTER.REPUL>
0.00223342

>  <SCORE.INTER.ROT>
4

>  <SCORE.INTER.VDW>
-13.7796

>  <SCORE.INTER.norm>
-1.21563

>  <SCORE.INTRA>
1.3967

>  <SCORE.INTRA.DIHEDRAL>
2.7023

>  <SCORE.INTRA.DIHEDRAL.0>
8.98184

>  <SCORE.INTRA.POLAR>
0

>  <SCORE.INTRA.POLAR.0>
0

>  <SCORE.INTRA.REPUL>
0

>  <SCORE.INTRA.REPUL.0>
0

>  <SCORE.INTRA.VDW>
0.0455499

>  <SCORE.INTRA.VDW.0>
-1.60828

>  <SCORE.INTRA.norm>
0.069835

>  <SCORE.RESTR>
0.696758

>  <SCORE.RESTR.CAVITY>
0.696758

>  <SCORE.RESTR.norm>
0.0348379

>  <SCORE.SYSTEM>
0.960705

>  <SCORE.SYSTEM.CONST>
0

>  <SCORE.SYSTEM.DIHEDRAL>
2.74531

>  <SCORE.SYSTEM.POLAR>
-0.724556

>  <SCORE.SYSTEM.REPUL>
0.479664

>  <SCORE.SYSTEM.VDW>
-0.346774

>  <SCORE.SYSTEM.norm>
0.0480353

>  <SCORE.heavy>
20

>  <SCORE.norm>
-1.06292

$$$$

  rDOCK(R)          3D
libRbt.so/2013.1/901 2013/11/27
 25 26  0  0  0  0  0  0  0  0999 V2000
   -0.6515   -0.9575   14.8155 C   0  0  0  0  0  0
    0.6086   -0.9444   14.1879 O   0  0  0  0  0  0
   -1.7259   -1.5466   13.9441 C   0  0  0  0  0  0
   -2.6581   -2.2276   14.9487 C   0  0  0  0  0  0
   -3.9442   -1.4985   15.0429 N   0  0  0  0  0  0
   -4.0386   -0.3682   15.8150 C   0  0  0  0  0  0
   -5.2431    0.3196   15.9353 C   0  0  0  0  0  0
   -6.3561   -0.1569   15.2458 C   0  0  0  0  0  0
   -7.5012    0.4425   15.3286 N   0  0  0  0  0  0
   -6.2344   -1.2605   14.4702 N   0  0  0  0  0  0
   -5.0563   -1.9276   14.3495 C   0  0  0  0  0  0
   -5.0234   -3.0375   13.5006 O   0  0  0  0  0  0
   -2.0172   -2.3019   16.2109 O   0  0  0  0  0  0
   -0.6918   -1.8542   16.0485 C   0  0  0  0  0  0
   -0.2350   -1.1213   17.3179 C   0  0  0  0  0  0
    0.8796   -0.2964   17.0431 O   0  0  0  0  0  0
    0.4356    1.3497   17.1518 P   0  0  0  0  0  0
   -0.6131    1.5282   18.2274 O   0  0  0  0  0  0
    1.7832    2.3175   17.4963 O   0  0  0  0  0  0
   -0.2163    1.8343   15.6685 O   0  0  0  0  0  0
    1.2593   -0.5143   14.8023 H   0  0  0  0  0  0
   -7.6452    1.2987   15.9110 H   0  0  0  0  0  0
   -5.7694   -3.2902   12.8676 H   0  0  0  0  0  0
    1.4701    3.2503   17.3827 H   0  0  0  0  0  0
    0.5287    1.7360   15.0234 H   0  0  0  0  0  0
  1  2  1  0  0  0
  1  3  1  0  0  0
  3  4  1  0  0  0
  4  5  1  0  0  0
  5  6  1  0  0  0
  6  7  2  0  0  0
  7  8  1  0  0  0
  8  9  2  0  0  0
  8 10  1  0  0  0
 10 11  2  0  0  0
 11 12  1  0  0  0
  4 13  1  0  0  0
 13 14  1  0  0  0
 14 15  1  0  0  0
 15 16  1  0  0  0
 16 17  1  0  0  0
 17 18  2  0  0  0
 17 19  1  0  0  0
 17 20  1  0  0  0
 14  1  1  0  0  0
 11  5  1  0  0  0
  2 21  1  0  0  0
  9 22  1  0  0  0
 12 23  1  0  0  0
 19 24  1  0  0  0
 20 25  1  0  0  0
M  END
>  <CHROM.0>
55.21044527,-55.08331010,-49.11585595,67.64553380,-57.99722617,-8.97510388
175.63504281,61.19737396,2.00345261,-177.76650605

>  <CHROM.1>
177.91395896,-80.66386206,-169.71208314,-40.83996065,110.92666781,33.89487588
170.30040099,-63.17369523,-2.13366978,-0.42722458,15.74540789,-0.43711184
0.10471509,-2.56707592

>  <RI>
4.38658e+07

>  <Rbt.Current_Directory>
/extra/banzai2/j5wagner/CELPP/2016_10_17_rdock_implementation/normal_run/tutorialVideo/tutorial_rdock_implementation/full_week_run/4-docking/5wrn/SMCSS_4g6w_docking

>  <Rbt.Executable>
rbdock ($Id: //depot/dev/client3/rdock/2013.1/src/exe/rbdock.cxx#4 $)

>  <Rbt.Library>
libRbt.so (2013.1, Build901 2013/11/27)

>  <Rbt.Parameter_File>
/home/j5wagner/env_00/source/rDock/rDock_2013.1_src//data/scripts/dock.prm

>  <Rbt.Receptor>
/extra/banzai2/j5wagner/CELPP/2016_10_17_rdock_implementation/normal_run/tutorialVideo/tutorial_rdock_implementation/full_week_run/4-docking/5wrn/SMCSS_4g6w_tech_prep/rDockGridGenInput.prm

>  <SCORE>
-21.1802

>  <SCORE.INTER>
-16.2732

>  <SCORE.INTER.CONST>
1

>  <SCORE.INTER.POLAR>
-3.64829

>  <SCORE.INTER.REPUL>
0.0125944

>  <SCORE.INTER.ROT>
4

>  <SCORE.INTER.VDW>
-13.332

>  <SCORE.INTER.norm>
-0.813662

>  <SCORE.INTRA>
0.0133861

>  <SCORE.INTRA.DIHEDRAL>
2.7597

>  <SCORE.INTRA.DIHEDRAL.0>
8.98184

>  <SCORE.INTRA.POLAR>
-0.233908

>  <SCORE.INTRA.POLAR.0>
0

>  <SCORE.INTRA.REPUL>
0

>  <SCORE.INTRA.REPUL.0>
0

>  <SCORE.INTRA.VDW>
-0.571178

>  <SCORE.INTRA.VDW.0>
-1.60828

>  <SCORE.INTRA.norm>
0.000669303

>  <SCORE.RESTR>
0.0389965

>  <SCORE.RESTR.CAVITY>
0.0389965

>  <SCORE.RESTR.norm>
0.00194982

>  <SCORE.SYSTEM>
-4.95934

>  <SCORE.SYSTEM.CONST>
0

>  <SCORE.SYSTEM.DIHEDRAL>
1.28877

>  <SCORE.SYSTEM.POLAR>
-1.64562

>  <SCORE.SYSTEM.VDW>
-0.0086072

>  <SCORE.SYSTEM.norm>
-0.247967

>  <SCORE.heavy>
20

>  <SCORE.norm>
-1.05901

$$$$

  rDOCK(R)          3D
libRbt.so/2013.1/901 2013/11/27
 25 26  0  0  0  0  0  0  0  0999 V2000
   -3.6999   -1.9635   15.5276 C   0  0  0  0  0  0
   -3.9773   -3.0769   14.7119 O   0  0  0  0  0  0
   -2.2257   -1.7079   15.6761 C   0  0  0  0  0  0
   -2.1439   -0.1842   15.7924 C   0  0  0  0  0  0
   -1.7610    0.2134   17.1671 N   0  0  0  0  0  0
   -2.7298    0.5218   18.0884 C   0  0  0  0  0  0
   -2.3916    0.9193   19.3792 C   0  0  0  0  0  0
   -1.0436    0.9895   19.7247 C   0  0  0  0  0  0
   -0.6756    1.3593   20.9101 N   0  0  0  0  0  0
   -0.1047    0.6573   18.8070 N   0  0  0  0  0  0
   -0.4369    0.2642   17.5490 C   0  0  0  0  0  0
    0.6027   -0.0883   16.6838 O   0  0  0  0  0  0
   -3.3886    0.3842   15.4223 O   0  0  0  0  0  0
   -4.2088   -0.6527   14.9369 C   0  0  0  0  0  0
   -5.6712   -0.3730   15.3117 C   0  0  0  0  0  0
   -6.5339   -1.2922   14.6723 O   0  0  0  0  0  0
   -8.1549   -0.9861   15.1165 P   0  0  0  0  0  0
   -9.0903   -1.5890   14.0917 O   0  0  0  0  0  0
   -8.4924   -1.6249   16.6492 O   0  0  0  0  0  0
   -8.3983    0.6870   15.1597 O   0  0  0  0  0  0
   -3.5735   -2.9184   13.8188 H   0  0  0  0  0  0
   -1.3616    1.6225   21.6538 H   0  0  0  0  0  0
    0.4715   -0.3561   15.7183 H   0  0  0  0  0  0
   -8.3716   -2.6036   16.5561 H   0  0  0  0  0  0
   -7.7061    1.0248   15.7823 H   0  0  0  0  0  0
  1  2  1  0  0  0
  1  3  1  0  0  0
  3  4  1  0  0  0
  4  5  1  0  0  0
  5  6  1  0  0  0
  6  7  2  0  0  0
  7  8  1  0  0  0
  8  9  2  0  0  0
  8 10  1  0  0  0
 10 11  2  0  0  0
 11 12  1  0  0  0
  4 13  1  0  0  0
 13 14  1  0  0  0
 14 15  1  0  0  0
 15 16  1  0  0  0
 16 17  1  0  0  0
 17 18  2  0  0  0
 17 19  1  0  0  0
 17 20  1  0  0  0
 14  1  1  0  0  0
 11  5  1  0  0  0
  2 21  1  0  0  0
  9 22  1  0  0  0
 12 23  1  0  0  0
 19 24  1  0  0  0
 20 25  1  0  0  0
M  END
>  <CHROM.0>
-179.05037856,172.44463458,-49.03649232,145.10621731,64.87370895,-179.96364688
-65.14239723,179.10414415,179.63310881,56.34371930

>  <CHROM.1>
-58.45880348,-94.31384382,3.21998342,-68.73769803,179.11098677,159.28852390
-62.86044028,-55.46240674,-4.11268552,-0.45570229,16.40533214,-2.65642472
-0.05810518,1.02057681

>  <RI>
4.38658e+07

>  <Rbt.Current_Directory>
/extra/banzai2/j5wagner/CELPP/2016_10_17_rdock_implementation/normal_run/tutorialVideo/tutorial_rdock_implementation/full_week_run/4-docking/5wrn/SMCSS_4g6w_docking

>  <Rbt.Executable>
rbdock ($Id: //depot/dev/client3/rdock/2013.1/src/exe/rbdock.cxx#4 $)

>  <Rbt.Library>
libRbt.so (2013.1, Build901 2013/11/27)

>  <Rbt.Parameter_File>
/home/j5wagner/env_00/source/rDock/rDock_2013.1_src//data/scripts/dock.prm

>  <Rbt.Receptor>
/extra/banzai2/j5wagner/CELPP/2016_10_17_rdock_implementation/normal_run/tutorialVideo/tutorial_rdock_implementation/full_week_run/4-docking/5wrn/SMCSS_4g6w_tech_prep/rDockGridGenInput.prm

>  <SCORE>
-20.8472

>  <SCORE.INTER>
-18.9816

>  <SCORE.INTER.CONST>
1

>  <SCORE.INTER.POLAR>
-2.84784

>  <SCORE.INTER.REPUL>
0

>  <SCORE.INTER.ROT>
4

>  <SCORE.INTER.VDW>
-18.699

>  <SCORE.INTER.norm>
-0.949082

>  <SCORE.INTRA>
-2.09812

>  <SCORE.INTRA.DIHEDRAL>
-5.53104

>  <SCORE.INTRA.DIHEDRAL.0>
8.98184

>  <SCORE.INTRA.POLAR>
0

>  <SCORE.INTRA.POLAR.0>
0

>  <SCORE.INTRA.REPUL>
0

>  <SCORE.INTRA.REPUL.0>
0

>  <SCORE.INTRA.VDW>
0.667397

>  <SCORE.INTRA.VDW.0>
-1.60828

>  <SCORE.INTRA.norm>
-0.104906

>  <SCORE.RESTR>
0

>  <SCORE.RESTR.CAVITY>
0

>  <SCORE.RESTR.norm>
0

>  <SCORE.SYSTEM>
0.232531

>  <SCORE.SYSTEM.CONST>
0

>  <SCORE.SYSTEM.DIHEDRAL>
8.94613

>  <SCORE.SYSTEM.POLAR>
-0.845053

>  <SCORE.SYSTEM.REPUL>
0.0620323

>  <SCORE.SYSTEM.VDW>
-1.67752

>  <SCORE.SYSTEM.norm>
0.0116265

>  <SCORE.heavy>
20

>  <SCORE.norm>
-1.04236

$$$$

  rDOCK(R)          3D
libRbt.so/2013.1/901 2013/11/27
 25 26  0  0  0  0  0  0  0  0999 V2000
   -0.6851    0.6250   17.6831 C   0  0  0  0  0  0
    0.2880    0.7324   18.6947 O   0  0  0  0  0  0
   -1.9858    0.0649   18.1884 C   0  0  0  0  0  0
   -3.0319    0.7749   17.3260 C   0  0  0  0  0  0
   -3.6591   -0.1764   16.3794 N   0  0  0  0  0  0
   -2.9332   -1.2280   15.8796 C   0  0  0  0  0  0
   -3.4962   -2.1209   14.9717 C   0  0  0  0  0  0
   -4.8213   -1.9330   14.5843 C   0  0  0  0  0  0
   -5.3902   -2.7315   13.7382 N   0  0  0  0  0  0
   -5.5266   -0.9026   15.1088 N   0  0  0  0  0  0
   -4.9771   -0.0351   15.9991 C   0  0  0  0  0  0
   -5.7954    0.9777   16.5076 O   0  0  0  0  0  0
   -2.4223    1.8548   16.6392 O   0  0  0  0  0  0
   -1.1018    1.9771   17.1136 C   0  0  0  0  0  0
   -0.1836    2.4373   15.9725 C   0  0  0  0  0  0
    1.0806    1.8121   16.0673 O   0  0  0  0  0  0
    1.0745    0.3368   15.2059 P   0  0  0  0  0  0
    1.3318   -0.8127   16.1552 O   0  0  0  0  0  0
   -0.4047    0.1067   14.4120 O   0  0  0  0  0  0
    2.3099    0.3780   14.0516 O   0  0  0  0  0  0
   -0.0501    1.3571   19.3886 H   0  0  0  0  0  0
   -4.8896   -3.5423   13.3081 H   0  0  0  0  0  0
   -6.7440    1.1471   16.2036 H   0  0  0  0  0  0
   -0.4558    0.8329   13.7404 H   0  0  0  0  0  0
    1.9583    0.9569   13.3290 H   0  0  0  0  0  0
  1  2  1  0  0  0
  1  3  1  0  0  0
  3  4  1  0  0  0
  4  5  1  0  0  0
  5  6  1  0  0  0
  6  7  2  0  0  0
  7  8  1  0  0  0
  8  9  2  0  0  0
  8 10  1  0  0  0
 10 11  2  0  0  0
 11 12  1  0  0  0
  4 13  1  0  0  0
 13 14  1  0  0  0
 14 15  1  0  0  0
 15 16  1  0  0  0
 16 17  1  0  0  0
 17 18  2  0  0  0
 17 19  1  0  0  0
 17 20  1  0  0  0
 14  1  1  0  0  0
 11  5  1  0  0  0
  2 21  1  0  0  0
  9 22  1  0  0  0
 12 23  1  0  0  0
 19 24  1  0  0  0
 20 25  1  0  0  0
M  END
>  <CHROM.0>
55.93096386,84.63056734,-49.68439691,67.49292474,62.11020138,-8.87242289
-64.13345187,61.36315099,5.63885069,-170.83054454

>  <CHROM.1>
-61.63502232,-31.87208466,175.64592297,-23.24595912,89.49126828,-117.91169570
64.71708528,-76.32407953,-1.73661916,0.16413132,15.97704085,0.24135171,0.17254963
0.89579212

>  <RI>
4.38658e+07

>  <Rbt.Current_Directory>
/extra/banzai2/j5wagner/CELPP/2016_10_17_rdock_implementation/normal_run/tutorialVideo/tutorial_rdock_implementation/full_week_run/4-docking/5wrn/SMCSS_4g6w_docking

>  <Rbt.Executable>
rbdock ($Id: //depot/dev/client3/rdock/2013.1/src/exe/rbdock.cxx#4 $)

>  <Rbt.Library>
libRbt.so (2013.1, Build901 2013/11/27)

>  <Rbt.Parameter_File>
/home/j5wagner/env_00/source/rDock/rDock_2013.1_src//data/scripts/dock.prm

>  <Rbt.Receptor>
/extra/banzai2/j5wagner/CELPP/2016_10_17_rdock_implementation/normal_run/tutorialVideo/tutorial_rdock_implementation/full_week_run/4-docking/5wrn/SMCSS_4g6w_tech_prep/rDockGridGenInput.prm

>  <SCORE>
-20.4143

>  <SCORE.INTER>
-17.5075

>  <SCORE.INTER.CONST>
1

>  <SCORE.INTER.POLAR>
-3.43855

>  <SCORE.INTER.REPUL>
0.0602448

>  <SCORE.INTER.ROT>
4

>  <SCORE.INTER.VDW>
-15.5177

>  <SCORE.INTER.norm>
-0.875377

>  <SCORE.INTRA>
3.0961

>  <SCORE.INTRA.DIHEDRAL>
3.35249

>  <SCORE.INTRA.DIHEDRAL.0>
8.98184

>  <SCORE.INTRA.POLAR>
0

>  <SCORE.INTRA.POLAR.0>
0

>  <SCORE.INTRA.REPUL>
0

>  <SCORE.INTRA.REPUL.0>
0

>  <SCORE.INTRA.VDW>
1.41986

>  <SCORE.INTRA.VDW.0>
-1.60828

>  <SCORE.INTRA.norm>
0.154805

>  <SCORE.RESTR>
0.0602083

>  <SCORE.RESTR.CAVITY>
0.0602083

>  <SCORE.RESTR.norm>
0.00301042

>  <SCORE.SYSTEM>
-6.06305

>  <SCORE.SYSTEM.CONST>
0

>  <SCORE.SYSTEM.DIHEDRAL>
3.83345

>  <SCORE.SYSTEM.POLAR>
-2.10801

>  <SCORE.SYSTEM.VDW>
-0.81255

>  <SCORE.SYSTEM.norm>
-0.303152

>  <SCORE.heavy>
20

>  <SCORE.norm>
-1.02071

$$$$

  rDOCK(R)          3D
libRbt.so/2013.1/901 2013/11/27
 25 26  0  0  0  0  0  0  0  0999 V2000
   -4.1431   -2.8170   13.4499 C   0  0  0  0  0  0
   -5.0119   -3.2676   12.4379 O   0  0  0  0  0  0
   -2.7450   -2.5810   12.9497 C   0  0  0  0  0  0
   -2.2605   -1.4071   13.8037 C   0  0  0  0  0  0
   -1.2207   -1.8529   14.7600 N   0  0  0  0  0  0
   -1.5457   -2.7161   15.7758 C   0  0  0  0  0  0
   -0.5891   -3.1302   16.6987 C   0  0  0  0  0  0
    0.7151   -2.6579   16.5664 C   0  0  0  0  0  0
    1.6409   -3.0079   17.4017 N   0  0  0  0  0  0
    1.0192   -1.8259   15.5420 N   0  0  0  0  0  0
    0.0853   -1.4269   14.6387 C   0  0  0  0  0  0
    0.5038   -0.5920   13.5988 O   0  0  0  0  0  0
   -3.3643   -0.8287   14.4794 O   0  0  0  0  0  0
   -4.5350   -1.4515   14.0047 C   0  0  0  0  0  0
   -5.5615   -1.5565   15.1416 C   0  0  0  0  0  0
   -6.6685   -2.3396   14.7424 O   0  0  0  0  0  0
   -8.0745   -1.8397   15.5741 P   0  0  0  0  0  0
   -8.6283   -2.9913   16.3839 O   0  0  0  0  0  0
   -7.7395   -0.5284   16.5937 O   0  0  0  0  0  0
   -9.2347   -1.3631   14.4395 O   0  0  0  0  0  0
   -5.9440   -3.2000   12.7732 H   0  0  0  0  0  0
    1.4571   -3.6497   18.2062 H   0  0  0  0  0  0
    1.2604    0.0735   13.6747 H   0  0  0  0  0  0
   -8.4256   -0.5707   17.3067 H   0  0  0  0  0  0
   -8.8183   -0.6033   13.9596 H   0  0  0  0  0  0
  1  2  1  0  0  0
  1  3  1  0  0  0
  3  4  1  0  0  0
  4  5  1  0  0  0
  5  6  1  0  0  0
  6  7  2  0  0  0
  7  8  1  0  0  0
  8  9  2  0  0  0
  8 10  1  0  0  0
 10 11  2  0  0  0
 11 12  1  0  0  0
  4 13  1  0  0  0
 13 14  1  0  0  0
 14 15  1  0  0  0
 15 16  1  0  0  0
 16 17  1  0  0  0
 17 18  2  0  0  0
 17 19  1  0  0  0
 17 20  1  0  0  0
 14  1  1  0  0  0
 11  5  1  0  0  0
  2 21  1  0  0  0
  9 22  1  0  0  0
 12 23  1  0  0  0
 19 24  1  0  0  0
 20 25  1  0  0  0
M  END
>  <CHROM.0>
174.03355567,-56.72832754,-49.34360341,-179.79151334,62.08057497,0.63725633
171.00201067,62.44553866,4.33249611,-172.48981368

>  <CHROM.1>
-166.96225077,-66.69556399,150.03842878,-52.13066641,-151.11966631,-119.90883213
-154.61420920,-61.41801953,-3.80842273,-1.97369446,14.96938081,-3.11701124
-0.02637255,1.69253500

>  <RI>
4.38658e+07

>  <Rbt.Current_Directory>
/extra/banzai2/j5wagner/CELPP/2016_10_17_rdock_implementation/normal_run/tutorialVideo/tutorial_rdock_implementation/full_week_run/4-docking/5wrn/SMCSS_4g6w_docking

>  <Rbt.Executable>
rbdock ($Id: //depot/dev/client3/rdock/2013.1/src/exe/rbdock.cxx#4 $)

>  <Rbt.Library>
libRbt.so (2013.1, Build901 2013/11/27)

>  <Rbt.Parameter_File>
/home/j5wagner/env_00/source/rDock/rDock_2013.1_src//data/scripts/dock.prm

>  <Rbt.Receptor>
/extra/banzai2/j5wagner/CELPP/2016_10_17_rdock_implementation/normal_run/tutorialVideo/tutorial_rdock_implementation/full_week_run/4-docking/5wrn/SMCSS_4g6w_tech_prep/rDockGridGenInput.prm

>  <SCORE>
-20.4089

>  <SCORE.INTER>
-18.0391

>  <SCORE.INTER.CONST>
1

>  <SCORE.INTER.POLAR>
-2.71133

>  <SCORE.INTER.REPUL>
0.0488875

>  <SCORE.INTER.ROT>
4

>  <SCORE.INTER.VDW>
-18.465

>  <SCORE.INTER.norm>
-0.901956

>  <SCORE.INTRA>
0.404397

>  <SCORE.INTRA.DIHEDRAL>
2.47078

>  <SCORE.INTRA.DIHEDRAL.0>
8.98184

>  <SCORE.INTRA.POLAR>
-0.374674

>  <SCORE.INTRA.POLAR.0>
0

>  <SCORE.INTRA.REPUL>
0

>  <SCORE.INTRA.REPUL.0>
0

>  <SCORE.INTRA.VDW>
0.442897

>  <SCORE.INTRA.VDW.0>
-1.60828

>  <SCORE.INTRA.norm>
0.0202199

>  <SCORE.RESTR>
0.553605

>  <SCORE.RESTR.CAVITY>
0.553605

>  <SCORE.RESTR.norm>
0.0276802

>  <SCORE.SYSTEM>
-3.32775

>  <SCORE.SYSTEM.CONST>
0

>  <SCORE.SYSTEM.DIHEDRAL>
1.25695

>  <SCORE.SYSTEM.POLAR>
-1.12297

>  <SCORE.SYSTEM.VDW>
-0.138135

>  <SCORE.SYSTEM.norm>
-0.166387

>  <SCORE.heavy>
20

>  <SCORE.norm>
-1.02044

$$$$

  rDOCK(R)          3D
libRbt.so/2013.1/901 2013/11/27
 25 26  0  0  0  0  0  0  0  0999 V2000
   -3.3642    2.2083   16.2136 C   0  0  0  0  0  0
   -3.8210    3.5365   16.3096 O   0  0  0  0  0  0
   -2.0565    1.9933   16.9238 C   0  0  0  0  0  0
   -2.1653    0.5534   17.4306 C   0  0  0  0  0  0
   -1.2408   -0.3323   16.6856 N   0  0  0  0  0  0
   -1.7381   -1.2650   15.8108 C   0  0  0  0  0  0
   -0.8884   -2.1225   15.1170 C   0  0  0  0  0  0
    0.4854   -2.0098   15.3201 C   0  0  0  0  0  0
    1.3184   -2.7870   14.7041 N   0  0  0  0  0  0
    0.9558   -1.0660   16.1698 N   0  0  0  0  0  0
    0.1252   -0.2261   16.8421 C   0  0  0  0  0  0
    0.7080    0.7354   17.6726 O   0  0  0  0  0  0
   -3.5069    0.1116   17.3105 O   0  0  0  0  0  0
   -4.2882    1.2109   16.9047 C   0  0  0  0  0  0
   -5.4191    0.7292   15.9847 C   0  0  0  0  0  0
   -5.8673   -0.5530   16.3758 O   0  0  0  0  0  0
   -6.6917   -1.3085   15.0842 P   0  0  0  0  0  0
   -7.2446   -2.6415   15.5382 O   0  0  0  0  0  0
   -7.9505   -0.3277   14.5146 O   0  0  0  0  0  0
   -5.5962   -1.5734   13.8232 O   0  0  0  0  0  0
   -4.0897    3.7074   17.2500 H   0  0  0  0  0  0
    1.0052   -3.5283   14.0367 H   0  0  0  0  0  0
    0.1870    1.3466   18.2857 H   0  0  0  0  0  0
   -8.5677   -0.9428   14.0438 H   0  0  0  0  0  0
   -4.9016   -2.1612   14.2142 H   0  0  0  0  0  0
  1  2  1  0  0  0
  1  3  1  0  0  0
  3  4  1  0  0  0
  4  5  1  0  0  0
  5  6  1  0  0  0
  6  7  2  0  0  0
  7  8  1  0  0  0
  8  9  2  0  0  0
  8 10  1  0  0  0
 10 11  2  0  0  0
 11 12  1  0  0  0
  4 13  1  0  0  0
 13 14  1  0  0  0
 14 15  1  0  0  0
 15 16  1  0  0  0
 16 17  1  0  0  0
 17 18  2  0  0  0
 17 19  1  0  0  0
 17 20  1  0  0  0
 14  1  1  0  0  0
 11  5  1  0  0  0
  2 21  1  0  0  0
  9 22  1  0  0  0
 12 23  1  0  0  0
 19 24  1  0  0  0
 20 25  1  0  0  0
M  END
>  <CHROM.0>
-58.48244202,175.77899344,-52.34889973,-179.65867205,65.75592467,-4.49005290
72.34421028,-62.70483376,-174.53634527,-178.90577337

>  <CHROM.1>
-69.37206822,-110.07048495,6.82995656,153.81363319,-160.03326789,-176.37712597
-158.89480539,60.19998409,-3.25932678,-0.30334324,15.96714041,3.06152650
0.13337330,-2.70906358

>  <RI>
4.38658e+07

>  <Rbt.Current_Directory>
/extra/banzai2/j5wagner/CELPP/2016_10_17_rdock_implementation/normal_run/tutorialVideo/tutorial_rdock_implementation/full_week_run/4-docking/5wrn/SMCSS_4g6w_docking

>  <Rbt.Executable>
rbdock ($Id: //depot/dev/client3/rdock/2013.1/src/exe/rbdock.cxx#4 $)

>  <Rbt.Library>
libRbt.so (2013.1, Build901 2013/11/27)

>  <Rbt.Parameter_File>
/home/j5wagner/env_00/source/rDock/rDock_2013.1_src//data/scripts/dock.prm

>  <Rbt.Receptor>
/extra/banzai2/j5wagner/CELPP/2016_10_17_rdock_implementation/normal_run/tutorialVideo/tutorial_rdock_implementation/full_week_run/4-docking/5wrn/SMCSS_4g6w_tech_prep/rDockGridGenInput.prm

>  <SCORE>
-20.3344

>  <SCORE.INTER>
-16.693

>  <SCORE.INTER.CONST>
1

>  <SCORE.INTER.POLAR>
-3.25877

>  <SCORE.INTER.REPUL>
0

>  <SCORE.INTER.ROT>
4

>  <SCORE.INTER.VDW>
-15.0132

>  <SCORE.INTER.norm>
-0.83465

>  <SCORE.INTRA>
-0.115127

>  <SCORE.INTRA.DIHEDRAL>
-1.36798

>  <SCORE.INTRA.DIHEDRAL.0>
8.98184

>  <SCORE.INTRA.POLAR>
0

>  <SCORE.INTRA.POLAR.0>
0

>  <SCORE.INTRA.REPUL>
0

>  <SCORE.INTRA.REPUL.0>
0

>  <SCORE.INTRA.VDW>
0.568861

>  <SCORE.INTRA.VDW.0>
-1.60828

>  <SCORE.INTRA.norm>
-0.00575634

>  <SCORE.RESTR>
0.00274026

>  <SCORE.RESTR.CAVITY>
0.00274026

>  <SCORE.RESTR.norm>
0.000137013

>  <SCORE.SYSTEM>
-3.52899

>  <SCORE.SYSTEM.CONST>
0

>  <SCORE.SYSTEM.DIHEDRAL>
1.31417

>  <SCORE.SYSTEM.POLAR>
-1.11132

>  <SCORE.SYSTEM.VDW>
-0.407593

>  <SCORE.SYSTEM.norm>
-0.176449

>  <SCORE.heavy>
20

>  <SCORE.norm>
-1.01672

$$$$

  rDOCK(R)          3D
libRbt.so/2013.1/901 2013/11/27
 25 26  0  0  0  0  0  0  0  0999 V2000
   -3.7281   -2.6622   14.2216 C   0  0  0  0  0  0
   -4.8243   -3.0966   13.4524 O   0  0  0  0  0  0
   -2.5241   -2.3377   13.3816 C   0  0  0  0  0  0
   -1.8611   -1.1906   14.1475 C   0  0  0  0  0  0
   -0.5896   -1.6398   14.7605 N   0  0  0  0  0  0
    0.0940   -2.7021   14.2250 C   0  0  0  0  0  0
    1.2792   -3.1549   14.7984 C   0  0  0  0  0  0
    1.7679   -2.5001   15.9270 C   0  0  0  0  0  0
    2.8626   -2.8853   16.5020 N   0  0  0  0  0  0
    1.0898   -1.4386   16.4245 N   0  0  0  0  0  0
   -0.0642   -0.9945   15.8602 C   0  0  0  0  0  0
   -0.6739    0.1280   16.4278 O   0  0  0  0  0  0
   -2.7579   -0.6988   15.1290 O   0  0  0  0  0  0
   -3.9948   -1.3470   14.9462 C   0  0  0  0  0  0
   -4.6733   -1.5582   16.3072 C   0  0  0  0  0  0
   -5.9639   -2.1100   16.1402 O   0  0  0  0  0  0
   -7.0489   -0.9136   15.5834 P   0  0  0  0  0  0
   -7.1173    0.2214   16.5814 O   0  0  0  0  0  0
   -6.5699   -0.3205   14.0701 O   0  0  0  0  0  0
   -8.5861   -1.6028   15.4350 O   0  0  0  0  0  0
   -4.5681   -3.9369   12.9897 H   0  0  0  0  0  0
    3.4232   -3.6965   16.1546 H   0  0  0  0  0  0
   -0.4490    0.4944   17.3422 H   0  0  0  0  0  0
   -7.3160    0.2566   13.7682 H   0  0  0  0  0  0
   -9.2015   -0.8299   15.3657 H   0  0  0  0  0  0
  1  2  1  0  0  0
  1  3  1  0  0  0
  3  4  1  0  0  0
  4  5  1  0  0  0
  5  6  1  0  0  0
  6  7  2  0  0  0
  7  8  1  0  0  0
  8  9  2  0  0  0
  8 10  1  0  0  0
 10 11  2  0  0  0
 11 12  1  0  0  0
  4 13  1  0  0  0
 13 14  1  0  0  0
 14 15  1  0  0  0
 15 16  1  0  0  0
 16 17  1  0  0  0
 17 18  2  0  0  0
 17 19  1  0  0  0
 17 20  1  0  0  0
 14  1  1  0  0  0
 11  5  1  0  0  0
  2 21  1  0  0  0
  9 22  1  0  0  0
 12 23  1  0  0  0
 19 24  1  0  0  0
 20 25  1  0  0  0
M  END
>  <CHROM.0>
-55.11285379,85.50892969,-49.97274561,66.52684034,61.90547396,-178.75278579
-65.14951507,-66.54613004,-168.99066592,174.51854252

>  <CHROM.1>
62.43464065,24.71552315,165.17205473,-64.91706427,-75.08094850,-59.62390284
171.76100014,164.44741134,-3.12744258,-1.56196059,15.24270010,3.08078405
-0.11381510,0.86827889

>  <RI>
4.38658e+07

>  <Rbt.Current_Directory>
/extra/banzai2/j5wagner/CELPP/2016_10_17_rdock_implementation/normal_run/tutorialVideo/tutorial_rdock_implementation/full_week_run/4-docking/5wrn/SMCSS_4g6w_docking

>  <Rbt.Executable>
rbdock ($Id: //depot/dev/client3/rdock/2013.1/src/exe/rbdock.cxx#4 $)

>  <Rbt.Library>
libRbt.so (2013.1, Build901 2013/11/27)

>  <Rbt.Parameter_File>
/home/j5wagner/env_00/source/rDock/rDock_2013.1_src//data/scripts/dock.prm

>  <Rbt.Receptor>
/extra/banzai2/j5wagner/CELPP/2016_10_17_rdock_implementation/normal_run/tutorialVideo/tutorial_rdock_implementation/full_week_run/4-docking/5wrn/SMCSS_4g6w_tech_prep/rDockGridGenInput.prm

>  <SCORE>
-19.9985

>  <SCORE.INTER>
-13.0032

>  <SCORE.INTER.CONST>
1

>  <SCORE.INTER.POLAR>
-2.02479

>  <SCORE.INTER.REPUL>
0

>  <SCORE.INTER.ROT>
4

>  <SCORE.INTER.VDW>
-15.5189

>  <SCORE.INTER.norm>
-0.650161

>  <SCORE.INTRA>
-0.311902

>  <SCORE.INTRA.DIHEDRAL>
-4.51224

>  <SCORE.INTRA.DIHEDRAL.0>
8.98184

>  <SCORE.INTRA.POLAR>
0

>  <SCORE.INTRA.POLAR.0>
0

>  <SCORE.INTRA.REPUL>
0.0158475

>  <SCORE.INTRA.REPUL.0>
0

>  <SCORE.INTRA.VDW>
1.86498

>  <SCORE.INTRA.VDW.0>
-1.60828

>  <SCORE.INTRA.norm>
-0.0155951

>  <SCORE.RESTR>
0.131999

>  <SCORE.RESTR.CAVITY>
0.131999

>  <SCORE.RESTR.norm>
0.00659997

>  <SCORE.SYSTEM>
-6.81541

>  <SCORE.SYSTEM.CONST>
0

>  <SCORE.SYSTEM.DIHEDRAL>
4.07824

>  <SCORE.SYSTEM.POLAR>
-2.11163

>  <SCORE.SYSTEM.VDW>
-1.67498

>  <SCORE.SYSTEM.norm>
-0.34077

>  <SCORE.heavy>
20

>  <SCORE.norm>
-0.999926

$$$$

  rDOCK(R)          3D
libRbt.so/2013.1/901 2013/11/27
 25 26  0  0  0  0  0  0  0  0999 V2000
   -2.8907    0.4484   15.2958 C   0  0  0  0  0  0
   -3.7306    0.6733   14.1886 O   0  0  0  0  0  0
   -3.5298    0.8462   16.5973 C   0  0  0  0  0  0
   -2.9535   -0.1623   17.5937 C   0  0  0  0  0  0
   -2.0103    0.5033   18.5220 N   0  0  0  0  0  0
   -2.4752    1.4095   19.4414 C   0  0  0  0  0  0
   -1.6036    2.0631   20.3083 C   0  0  0  0  0  0
   -0.2431    1.7720   20.2325 C   0  0  0  0  0  0
    0.6101    2.3566   21.0120 N   0  0  0  0  0  0
    0.1909    0.8564   19.3340 N   0  0  0  0  0  0
   -0.6621    0.2152   18.4922 C   0  0  0  0  0  0
   -0.1219   -0.7360   17.6220 O   0  0  0  0  0  0
   -2.3197   -1.2145   16.8861 O   0  0  0  0  0  0
   -2.5784   -1.0284   15.5141 C   0  0  0  0  0  0
   -1.3688   -1.4965   14.6925 C   0  0  0  0  0  0
   -0.1646   -1.0351   15.2715 O   0  0  0  0  0  0
    0.4871    0.2395   14.3391 P   0  0  0  0  0  0
    1.9414    0.4476   14.7001 O   0  0  0  0  0  0
    0.3473   -0.0905   12.6830 O   0  0  0  0  0  0
   -0.3689    1.6565   14.6848 O   0  0  0  0  0  0
   -4.5648    0.1504   14.3177 H   0  0  0  0  0  0
    0.3247    3.0675   21.7233 H   0  0  0  0  0  0
    0.5568   -1.4334   17.8940 H   0  0  0  0  0  0
   -0.6031    0.0801   12.4625 H   0  0  0  0  0  0
   -1.1314    1.6490   14.0528 H   0  0  0  0  0  0
  1  2  1  0  0  0
  1  3  1  0  0  0
  3  4  1  0  0  0
  4  5  1  0  0  0
  5  6  1  0  0  0
  6  7  2  0  0  0
  7  8  1  0  0  0
  8  9  2  0  0  0
  8 10  1  0  0  0
 10 11  2  0  0  0
 11 12  1  0  0  0
  4 13  1  0  0  0
 13 14  1  0  0  0
 14 15  1  0  0  0
 15 16  1  0  0  0
 16 17  1  0  0  0
 17 18  2  0  0  0
 17 19  1  0  0  0
 17 20  1  0  0  0
 14  1  1  0  0  0
 11  5  1  0  0  0
  2 21  1  0  0  0
  9 22  1  0  0  0
 12 23  1  0  0  0
 19 24  1  0  0  0
 20 25  1  0  0  0
M  END
>  <CHROM.0>
-169.12002163,88.48527047,-49.64752737,65.65152879,-52.24865966,15.00184247
72.68903889,-62.75515809,15.74591657,176.54097998

>  <CHROM.1>
-58.98052904,68.06396814,-135.07760148,75.49248559,-106.10274824,-163.03713169
76.53212069,-87.99067290,-1.04270321,0.35326488,16.59494409,1.51738941,-0.12893039
-1.82868703

>  <RI>
4.38658e+07

>  <Rbt.Current_Directory>
/extra/banzai2/j5wagner/CELPP/2016_10_17_rdock_implementation/normal_run/tutorialVideo/tutorial_rdock_implementation/full_week_run/4-docking/5wrn/SMCSS_4g6w_docking

>  <Rbt.Executable>
rbdock ($Id: //depot/dev/client3/rdock/2013.1/src/exe/rbdock.cxx#4 $)

>  <Rbt.Library>
libRbt.so (2013.1, Build901 2013/11/27)

>  <Rbt.Parameter_File>
/home/j5wagner/env_00/source/rDock/rDock_2013.1_src//data/scripts/dock.prm

>  <Rbt.Receptor>
/extra/banzai2/j5wagner/CELPP/2016_10_17_rdock_implementation/normal_run/tutorialVideo/tutorial_rdock_implementation/full_week_run/4-docking/5wrn/SMCSS_4g6w_tech_prep/rDockGridGenInput.prm

>  <SCORE>
-19.9258

>  <SCORE.INTER>
-22.5455

>  <SCORE.INTER.CONST>
1

>  <SCORE.INTER.POLAR>
-4.90981

>  <SCORE.INTER.REPUL>
0.00767618

>  <SCORE.INTER.ROT>
4

>  <SCORE.INTER.VDW>
-15.2905

>  <SCORE.INTER.norm>
-1.12727

>  <SCORE.INTRA>
7.45609

>  <SCORE.INTRA.DIHEDRAL>
4.93625

>  <SCORE.INTRA.DIHEDRAL.0>
8.98184

>  <SCORE.INTRA.POLAR>
0

>  <SCORE.INTRA.POLAR.0>
0

>  <SCORE.INTRA.REPUL>
0.708844

>  <SCORE.INTRA.REPUL.0>
0

>  <SCORE.INTRA.VDW>
1.44375

>  <SCORE.INTRA.VDW.0>
-1.60828

>  <SCORE.INTRA.norm>
0.372805

>  <SCORE.RESTR>
0.0322602

>  <SCORE.RESTR.CAVITY>
0.0322602

>  <SCORE.RESTR.norm>
0.00161301

>  <SCORE.SYSTEM>
-4.86862

>  <SCORE.SYSTEM.CONST>
0

>  <SCORE.SYSTEM.DIHEDRAL>
5.91055

>  <SCORE.SYSTEM.POLAR>
-2.16396

>  <SCORE.SYSTEM.VDW>
-0.466445

>  <SCORE.SYSTEM.norm>
-0.243431

>  <SCORE.heavy>
20

>  <SCORE.norm>
-0.996288

$$$$

  rDOCK(R)          3D
libRbt.so/2013.1/901 2013/11/27
 25 26  0  0  0  0  0  0  0  0999 V2000
   -2.6183    0.2446   18.1052 C   0  0  0  0  0  0
   -1.7444    0.9841   18.9245 O   0  0  0  0  0  0
   -3.6714    1.1021   17.4600 C   0  0  0  0  0  0
   -3.9032    0.4174   16.1111 C   0  0  0  0  0  0
   -5.2355   -0.2292   16.0774 N   0  0  0  0  0  0
   -6.3604    0.5254   15.8589 C   0  0  0  0  0  0
   -7.6243   -0.0585   15.8454 C   0  0  0  0  0  0
   -7.7272   -1.4331   16.0489 C   0  0  0  0  0  0
   -8.8795   -2.0242   16.0517 N   0  0  0  0  0  0
   -6.6018   -2.1623   16.2385 N   0  0  0  0  0  0
   -5.3684   -1.5915   16.2459 C   0  0  0  0  0  0
   -4.2654   -2.4326   16.4180 O   0  0  0  0  0  0
   -2.8701   -0.5245   15.8770 O   0  0  0  0  0  0
   -1.9179   -0.3847   16.9054 C   0  0  0  0  0  0
   -1.3110   -1.7554   17.2371 C   0  0  0  0  0  0
   -0.9729   -2.4501   16.0534 O   0  0  0  0  0  0
    0.0734   -1.5017   15.0918 P   0  0  0  0  0  0
   -0.7330   -0.5166   14.2746 O   0  0  0  0  0  0
    1.1917   -0.6699   16.0555 O   0  0  0  0  0  0
    0.9164   -2.5225   14.0394 O   0  0  0  0  0  0
   -2.2720    1.3810   19.6661 H   0  0  0  0  0  0
   -9.7760   -1.5062   15.9069 H   0  0  0  0  0  0
   -4.3176   -3.4416   16.4309 H   0  0  0  0  0  0
    1.7004   -0.0963   15.4284 H   0  0  0  0  0  0
    0.2108   -3.0247   13.5589 H   0  0  0  0  0  0
  1  2  1  0  0  0
  1  3  1  0  0  0
  3  4  1  0  0  0
  4  5  1  0  0  0
  5  6  1  0  0  0
  6  7  2  0  0  0
  7  8  1  0  0  0
  8  9  2  0  0  0
  8 10  1  0  0  0
 10 11  2  0  0  0
 11 12  1  0  0  0
  4 13  1  0  0  0
 13 14  1  0  0  0
 14 15  1  0  0  0
 15 16  1  0  0  0
 16 17  1  0  0  0
 17 18  2  0  0  0
 17 19  1  0  0  0
 17 20  1  0  0  0
 14  1  1  0  0  0
 11  5  1  0  0  0
  2 21  1  0  0  0
  9 22  1  0  0  0
 12 23  1  0  0  0
 19 24  1  0  0  0
 20 25  1  0  0  0
M  END
>  <CHROM.0>
-178.76117087,-56.05558616,63.30937160,-60.78981674,-56.24758720,-174.75272355
-169.01980737,-177.19666199,-172.53577910,-3.33922206

>  <CHROM.1>
62.77074396,78.77898708,-172.19834581,165.34359326,55.56704415,-82.70441702
-175.47302667,54.99340631,-3.11596052,-0.91476655,16.16425305,-0.09032114
0.03579578,0.76736349

>  <RI>
4.38658e+07

>  <Rbt.Current_Directory>
/extra/banzai2/j5wagner/CELPP/2016_10_17_rdock_implementation/normal_run/tutorialVideo/tutorial_rdock_implementation/full_week_run/4-docking/5wrn/SMCSS_4g6w_docking

>  <Rbt.Executable>
rbdock ($Id: //depot/dev/client3/rdock/2013.1/src/exe/rbdock.cxx#4 $)

>  <Rbt.Library>
libRbt.so (2013.1, Build901 2013/11/27)

>  <Rbt.Parameter_File>
/home/j5wagner/env_00/source/rDock/rDock_2013.1_src//data/scripts/dock.prm

>  <Rbt.Receptor>
/extra/banzai2/j5wagner/CELPP/2016_10_17_rdock_implementation/normal_run/tutorialVideo/tutorial_rdock_implementation/full_week_run/4-docking/5wrn/SMCSS_4g6w_tech_prep/rDockGridGenInput.prm

>  <SCORE>
-19.8978

>  <SCORE.INTER>
-18.9119

>  <SCORE.INTER.CONST>
1

>  <SCORE.INTER.POLAR>
-2.81702

>  <SCORE.INTER.REPUL>
0

>  <SCORE.INTER.ROT>
4

>  <SCORE.INTER.VDW>
-18.734

>  <SCORE.INTER.norm>
-0.945595

>  <SCORE.INTRA>
-1.12096

>  <SCORE.INTRA.DIHEDRAL>
-4.82585

>  <SCORE.INTRA.DIHEDRAL.0>
8.98184

>  <SCORE.INTRA.POLAR>
0

>  <SCORE.INTRA.POLAR.0>
0

>  <SCORE.INTRA.REPUL>
0

>  <SCORE.INTRA.REPUL.0>
0

>  <SCORE.INTRA.VDW>
1.29196

>  <SCORE.INTRA.VDW.0>
-1.60828

>  <SCORE.INTRA.norm>
-0.0560482

>  <SCORE.RESTR>
0

>  <SCORE.RESTR.CAVITY>
0

>  <SCORE.RESTR.norm>
0

>  <SCORE.SYSTEM>
0.135057

>  <SCORE.SYSTEM.CONST>
0

>  <SCORE.SYSTEM.DIHEDRAL>
0.939364

>  <SCORE.SYSTEM.POLAR>
-0.0385209

>  <SCORE.SYSTEM.REPUL>
0.272834

>  <SCORE.SYSTEM.VDW>
-1.56782

>  <SCORE.SYSTEM.norm>
0.00675287

>  <SCORE.heavy>
20

>  <SCORE.norm>
-0.99489

$$$$

  rDOCK(R)          3D
libRbt.so/2013.1/901 2013/11/27
 25 26  0  0  0  0  0  0  0  0999 V2000
    0.7901    0.4600   14.2582 C   0  0  0  0  0  0
    2.1848    0.6500   14.2331 O   0  0  0  0  0  0
    0.3932   -0.8253   14.9299 C   0  0  0  0  0  0
   -0.9429   -0.4779   15.5902 C   0  0  0  0  0  0
   -2.0586   -1.1693   14.9035 N   0  0  0  0  0  0
   -3.2474   -0.5165   14.6950 C   0  0  0  0  0  0
   -4.3163   -1.1547   14.0717 C   0  0  0  0  0  0
   -4.1540   -2.4732   13.6514 C   0  0  0  0  0  0
   -5.1189   -3.1139   13.0720 N   0  0  0  0  0  0
   -2.9642   -3.0902   13.8455 N   0  0  0  0  0  0
   -1.9199   -2.4639   14.4493 C   0  0  0  0  0  0
   -0.7227   -3.1742   14.5758 O   0  0  0  0  0  0
   -1.1244    0.9279   15.5756 O   0  0  0  0  0  0
    0.0623    1.5108   15.0902 C   0  0  0  0  0  0
   -0.2753    2.7680   14.2761 C   0  0  0  0  0  0
   -0.9604    3.7106   15.0763 O   0  0  0  0  0  0
   -2.6460    3.5751   14.8340 P   0  0  0  0  0  0
   -2.9349    3.3165   13.3716 O   0  0  0  0  0  0
   -3.2937    2.3256   15.7777 O   0  0  0  0  0  0
   -3.3773    5.0317   15.2852 O   0  0  0  0  0  0
    2.3951    1.3306   13.5414 H   0  0  0  0  0  0
   -6.0542   -2.6808   12.8968 H   0  0  0  0  0  0
   -0.5429   -4.0663   14.1365 H   0  0  0  0  0  0
   -4.2693    2.3500   15.6085 H   0  0  0  0  0  0
   -4.3488    4.8397   15.2693 H   0  0  0  0  0  0
  1  2  1  0  0  0
  1  3  1  0  0  0
  3  4  1  0  0  0
  4  5  1  0  0  0
  5  6  1  0  0  0
  6  7  2  0  0  0
  7  8  1  0  0  0
  8  9  2  0  0  0
  8 10  1  0  0  0
 10 11  2  0  0  0
 11 12  1  0  0  0
  4 13  1  0  0  0
 13 14  1  0  0  0
 14 15  1  0  0  0
 15 16  1  0  0  0
 16 17  1  0  0  0
 17 18  2  0  0  0
 17 19  1  0  0  0
 17 20  1  0  0  0
 14  1  1  0  0  0
 11  5  1  0  0  0
  2 21  1  0  0  0
  9 22  1  0  0  0
 12 23  1  0  0  0
 19 24  1  0  0  0
 20 25  1  0  0  0
M  END
>  <CHROM.0>
-62.08519014,173.60563291,-47.50856570,65.17887012,-177.95756357,174.20329130
76.85642416,-171.94820065,-1.14604377,-0.53788183

>  <CHROM.1>
161.73422149,-140.22646728,-170.52381127,179.38047180,-96.90985681,-39.06234691
177.30620945,-170.71431077,-1.86044657,0.58424147,14.60376442,-1.44537837
0.09403219,-3.02723662

>  <RI>
4.38658e+07

>  <Rbt.Current_Directory>
/extra/banzai2/j5wagner/CELPP/2016_10_17_rdock_implementation/normal_run/tutorialVideo/tutorial_rdock_implementation/full_week_run/4-docking/5wrn/SMCSS_4g6w_docking

>  <Rbt.Executable>
rbdock ($Id: //depot/dev/client3/rdock/2013.1/src/exe/rbdock.cxx#4 $)

>  <Rbt.Library>
libRbt.so (2013.1, Build901 2013/11/27)

>  <Rbt.Parameter_File>
/home/j5wagner/env_00/source/rDock/rDock_2013.1_src//data/scripts/dock.prm

>  <Rbt.Receptor>
/extra/banzai2/j5wagner/CELPP/2016_10_17_rdock_implementation/normal_run/tutorialVideo/tutorial_rdock_implementation/full_week_run/4-docking/5wrn/SMCSS_4g6w_tech_prep/rDockGridGenInput.prm

>  <SCORE>
-19.8918

>  <SCORE.INTER>
-20.4462

>  <SCORE.INTER.CONST>
1

>  <SCORE.INTER.POLAR>
-5.10206

>  <SCORE.INTER.REPUL>
0

>  <SCORE.INTER.ROT>
4

>  <SCORE.INTER.VDW>
-12.4992

>  <SCORE.INTER.norm>
-1.02231

>  <SCORE.INTRA>
2.19482

>  <SCORE.INTRA.DIHEDRAL>
0.790499

>  <SCORE.INTRA.DIHEDRAL.0>
8.98184

>  <SCORE.INTRA.POLAR>
0

>  <SCORE.INTRA.POLAR.0>
0

>  <SCORE.INTRA.REPUL>
0.0183143

>  <SCORE.INTRA.REPUL.0>
0

>  <SCORE.INTRA.VDW>
1.708

>  <SCORE.INTRA.VDW.0>
-1.60828

>  <SCORE.INTRA.norm>
0.109741

>  <SCORE.RESTR>
0.517465

>  <SCORE.RESTR.CAVITY>
0.517465

>  <SCORE.RESTR.norm>
0.0258732

>  <SCORE.SYSTEM>
-2.15786

>  <SCORE.SYSTEM.CONST>
0

>  <SCORE.SYSTEM.DIHEDRAL>
2.79346

>  <SCORE.SYSTEM.POLAR>
-1.34812

>  <SCORE.SYSTEM.REPUL>
0.272834

>  <SCORE.SYSTEM.VDW>
-0.335157

>  <SCORE.SYSTEM.norm>
-0.107893

>  <SCORE.heavy>
20

>  <SCORE.norm>
-0.99459

$$$$

  rDOCK(R)          3D
libRbt.so/2013.1/901 2013/11/27
 25 26  0  0  0  0  0  0  0  0999 V2000
   -4.7148   -2.3487   16.3597 C   0  0  0  0  0  0
   -5.6708   -3.1598   17.0002 O   0  0  0  0  0  0
   -3.5823   -3.1436   15.7714 C   0  0  0  0  0  0
   -3.2003   -2.3407   14.5257 C   0  0  0  0  0  0
   -1.8814   -1.6917   14.7086 N   0  0  0  0  0  0
   -1.6051   -1.0108   15.8673 C   0  0  0  0  0  0
   -0.3803   -0.3747   16.0508 C   0  0  0  0  0  0
    0.5703   -0.4502   15.0349 C   0  0  0  0  0  0
    1.7227    0.1288   15.1532 N   0  0  0  0  0  0
    0.2856   -1.1480   13.9097 N   0  0  0  0  0  0
   -0.9086   -1.7730   13.7345 C   0  0  0  0  0  0
   -1.0959   -2.4944   12.5521 O   0  0  0  0  0  0
   -4.2097   -1.3832   14.2543 O   0  0  0  0  0  0
   -5.2754   -1.6158   15.1453 C   0  0  0  0  0  0
   -5.9340   -0.2811   15.5223 C   0  0  0  0  0  0
   -7.1582   -0.1179   14.8347 O   0  0  0  0  0  0
   -8.2557   -1.3471   15.2855 P   0  0  0  0  0  0
   -7.6499   -2.7044   15.0039 O   0  0  0  0  0  0
   -8.6575   -1.2261   16.9272 O   0  0  0  0  0  0
   -9.6659   -1.1781   14.3672 O   0  0  0  0  0  0
   -6.2475   -3.5717   16.3047 H   0  0  0  0  0  0
    1.9910    0.6760   16.0027 H   0  0  0  0  0  0
   -0.5984   -2.3127   11.6915 H   0  0  0  0  0  0
   -9.5485   -0.7940   16.9464 H   0  0  0  0  0  0
   -9.4370   -1.5627   13.4838 H   0  0  0  0  0  0
  1  2  1  0  0  0
  1  3  1  0  0  0
  3  4  1  0  0  0
  4  5  1  0  0  0
  5  6  1  0  0  0
  6  7  2  0  0  0
  7  8  1  0  0  0
  8  9  2  0  0  0
  8 10  1  0  0  0
 10 11  2  0  0  0
 11 12  1  0  0  0
  4 13  1  0  0  0
 13 14  1  0  0  0
 14 15  1  0  0  0
 15 16  1  0  0  0
 16 17  1  0  0  0
 17 18  2  0  0  0
 17 19  1  0  0  0
 17 20  1  0  0  0
 14  1  1  0  0  0
 11  5  1  0  0  0
  2 21  1  0  0  0
  9 22  1  0  0  0
 12 23  1  0  0  0
 19 24  1  0  0  0
 20 25  1  0  0  0
M  END
>  <CHROM.0>
58.03544071,86.25932237,148.73447044,63.02792764,-176.94003403,-178.25307585
-63.49984240,175.81611724,17.83978077,-169.80610956

>  <CHROM.1>
-78.33957552,-46.96438990,155.85913501,-136.43247967,62.42300269,-57.31408055
101.20950921,78.32815916,-4.29293570,-1.49219769,15.10368986,-3.05104798
-0.07263474,-1.81377481

>  <RI>
4.38658e+07

>  <Rbt.Current_Directory>
/extra/banzai2/j5wagner/CELPP/2016_10_17_rdock_implementation/normal_run/tutorialVideo/tutorial_rdock_implementation/full_week_run/4-docking/5wrn/SMCSS_4g6w_docking

>  <Rbt.Executable>
rbdock ($Id: //depot/dev/client3/rdock/2013.1/src/exe/rbdock.cxx#4 $)

>  <Rbt.Library>
libRbt.so (2013.1, Build901 2013/11/27)

>  <Rbt.Parameter_File>
/home/j5wagner/env_00/source/rDock/rDock_2013.1_src//data/scripts/dock.prm

>  <Rbt.Receptor>
/extra/banzai2/j5wagner/CELPP/2016_10_17_rdock_implementation/normal_run/tutorialVideo/tutorial_rdock_implementation/full_week_run/4-docking/5wrn/SMCSS_4g6w_tech_prep/rDockGridGenInput.prm

>  <SCORE>
-19.889

>  <SCORE.INTER>
-22.6802

>  <SCORE.INTER.CONST>
1

>  <SCORE.INTER.POLAR>
-4.09914

>  <SCORE.INTER.REPUL>
0.146453

>  <SCORE.INTER.ROT>
4

>  <SCORE.INTER.VDW>
-18.8754

>  <SCORE.INTER.norm>
-1.13401

>  <SCORE.INTRA>
0.822368

>  <SCORE.INTRA.DIHEDRAL>
2.61908

>  <SCORE.INTRA.DIHEDRAL.0>
8.98184

>  <SCORE.INTRA.POLAR>
-0.611309

>  <SCORE.INTRA.POLAR.0>
0

>  <SCORE.INTRA.REPUL>
0

>  <SCORE.INTRA.REPUL.0>
0

>  <SCORE.INTRA.VDW>
1.59127

>  <SCORE.INTRA.VDW.0>
-1.60828

>  <SCORE.INTRA.norm>
0.0411184

>  <SCORE.RESTR>
0.547574

>  <SCORE.RESTR.CAVITY>
0.547574

>  <SCORE.RESTR.norm>
0.0273787

>  <SCORE.SYSTEM>
1.42131

>  <SCORE.SYSTEM.CONST>
0

>  <SCORE.SYSTEM.DIHEDRAL>
7.57244

>  <SCORE.SYSTEM.POLAR>
-1.29897

>  <SCORE.SYSTEM.REPUL>
0.713693

>  <SCORE.SYSTEM.VDW>
-1.51689

>  <SCORE.SYSTEM.norm>
0.0710655

>  <SCORE.heavy>
20

>  <SCORE.norm>
-0.994449

$$$$

  rDOCK(R)          3D
libRbt.so/2013.1/901 2013/11/27
 25 26  0  0  0  0  0  0  0  0999 V2000
   -2.7114   -0.2031   17.7627 C   0  0  0  0  0  0
   -3.3315   -0.6133   18.9582 O   0  0  0  0  0  0
   -1.2239   -0.0394   17.9090 C   0  0  0  0  0  0
   -0.6901   -0.4386   16.5314 C   0  0  0  0  0  0
   -0.1647    0.7456   15.8132 N   0  0  0  0  0  0
   -0.9554    1.8543   15.6453 C   0  0  0  0  0  0
   -0.4894    2.9696   14.9543 C   0  0  0  0  0  0
    0.8058    2.9444   14.4413 C   0  0  0  0  0  0
    1.2852    3.9532   13.7857 N   0  0  0  0  0  0
    1.5774    1.8491   14.6397 N   0  0  0  0  0  0
    1.1228    0.7634   15.3193 C   0  0  0  0  0  0
    2.0051   -0.3057   15.4989 O   0  0  0  0  0  0
   -1.7207   -1.0713   15.7918 O   0  0  0  0  0  0
   -2.8261   -1.2381   16.6484 C   0  0  0  0  0  0
   -4.1274   -1.0906   15.8471 C   0  0  0  0  0  0
   -5.2451   -1.4208   16.6470 O   0  0  0  0  0  0
   -6.6496   -1.5307   15.6805 P   0  0  0  0  0  0
   -7.8623   -1.7420   16.5600 O   0  0  0  0  0  0
   -6.8525   -0.1305   14.7480 O   0  0  0  0  0  0
   -6.4908   -2.8564   14.6425 O   0  0  0  0  0  0
   -3.2349    0.1149   19.6262 H   0  0  0  0  0  0
    0.7308    4.8218   13.6090 H   0  0  0  0  0  0
    1.7212   -1.2359   15.7731 H   0  0  0  0  0  0
   -6.8837    0.6146   15.3999 H   0  0  0  0  0  0
   -5.6908   -2.6519   14.0957 H   0  0  0  0  0  0
  1  2  1  0  0  0
  1  3  1  0  0  0
  3  4  1  0  0  0
  4  5  1  0  0  0
  5  6  1  0  0  0
  6  7  2  0  0  0
  7  8  1  0  0  0
  8  9  2  0  0  0
  8 10  1  0  0  0
 10 11  2  0  0  0
 11 12  1  0  0  0
  4 13  1  0  0  0
 13 14  1  0  0  0
 14 15  1  0  0  0
 15 16  1  0  0  0
 16 17  1  0  0  0
 17 18  2  0  0  0
 17 19  1  0  0  0
 17 20  1  0  0  0
 14  1  1  0  0  0
 11  5  1  0  0  0
  2 21  1  0  0  0
  9 22  1  0  0  0
 12 23  1  0  0  0
 19 24  1  0  0  0
 20 25  1  0  0  0
M  END
>  <CHROM.0>
61.39606077,80.48705029,63.28271075,-177.57223395,-54.65062258,-7.22008699
-63.81942815,-61.85600418,-170.43795203,2.30792651

>  <CHROM.1>
65.54557236,-53.86593748,16.53708517,-67.64591795,-169.71405014,-174.16901623
-57.17074507,-60.87673925,-2.62165795,-0.05613245,15.89344046,-2.79060699
-0.27162507,-0.87240447

>  <RI>
4.38658e+07

>  <Rbt.Current_Directory>
/extra/banzai2/j5wagner/CELPP/2016_10_17_rdock_implementation/normal_run/tutorialVideo/tutorial_rdock_implementation/full_week_run/4-docking/5wrn/SMCSS_4g6w_docking

>  <Rbt.Executable>
rbdock ($Id: //depot/dev/client3/rdock/2013.1/src/exe/rbdock.cxx#4 $)

>  <Rbt.Library>
libRbt.so (2013.1, Build901 2013/11/27)

>  <Rbt.Parameter_File>
/home/j5wagner/env_00/source/rDock/rDock_2013.1_src//data/scripts/dock.prm

>  <Rbt.Receptor>
/extra/banzai2/j5wagner/CELPP/2016_10_17_rdock_implementation/normal_run/tutorialVideo/tutorial_rdock_implementation/full_week_run/4-docking/5wrn/SMCSS_4g6w_tech_prep/rDockGridGenInput.prm

>  <SCORE>
-19.8522

>  <SCORE.INTER>
-17.1734

>  <SCORE.INTER.CONST>
1

>  <SCORE.INTER.POLAR>
-3.21325

>  <SCORE.INTER.REPUL>
0.0108603

>  <SCORE.INTER.ROT>
4

>  <SCORE.INTER.VDW>
-15.7027

>  <SCORE.INTER.norm>
-0.858672

>  <SCORE.INTRA>
-2.33273

>  <SCORE.INTRA.DIHEDRAL>
-5.19745

>  <SCORE.INTRA.DIHEDRAL.0>
8.98184

>  <SCORE.INTRA.POLAR>
0

>  <SCORE.INTRA.POLAR.0>
0

>  <SCORE.INTRA.REPUL>
0

>  <SCORE.INTRA.REPUL.0>
0

>  <SCORE.INTRA.VDW>
0.265992

>  <SCORE.INTRA.VDW.0>
-1.60828

>  <SCORE.INTRA.norm>
-0.116637

>  <SCORE.RESTR>
0.534593

>  <SCORE.RESTR.CAVITY>
0.534593

>  <SCORE.RESTR.norm>
0.0267296

>  <SCORE.SYSTEM>
-0.880602

>  <SCORE.SYSTEM.CONST>
0

>  <SCORE.SYSTEM.DIHEDRAL>
2.35197

>  <SCORE.SYSTEM.POLAR>
-0.45337

>  <SCORE.SYSTEM.REPUL>
0.272834

>  <SCORE.SYSTEM.VDW>
-1.8793

>  <SCORE.SYSTEM.norm>
-0.0440301

>  <SCORE.heavy>
20

>  <SCORE.norm>
-0.992609

$$$$

  rDOCK(R)          3D
libRbt.so/2013.1/901 2013/11/27
 25 26  0  0  0  0  0  0  0  0999 V2000
   -0.4489    0.1260   16.7234 C   0  0  0  0  0  0
    0.6634    0.7148   17.3543 O   0  0  0  0  0  0
   -1.6269    1.0567   16.6404 C   0  0  0  0  0  0
   -2.2994    0.6547   15.3258 C   0  0  0  0  0  0
   -3.5911   -0.0218   15.5871 N   0  0  0  0  0  0
   -3.7045   -1.3779   15.4120 C   0  0  0  0  0  0
   -4.9148   -2.0306   15.6304 C   0  0  0  0  0  0
   -6.0138   -1.2796   16.0422 C   0  0  0  0  0  0
   -7.1635   -1.8372   16.2533 N   0  0  0  0  0  0
   -5.8731    0.0539   16.2323 N   0  0  0  0  0  0
   -4.6894    0.6886   16.0239 C   0  0  0  0  0  0
   -4.6363    2.0621   16.2775 O   0  0  0  0  0  0
   -1.4247   -0.1790   14.5846 O   0  0  0  0  0  0
   -0.1894   -0.2166   15.2601 C   0  0  0  0  0  0
    0.4502   -1.6020   15.0900 C   0  0  0  0  0  0
    1.7274   -1.6386   15.6946 O   0  0  0  0  0  0
    2.1625   -3.2506   16.0559 P   0  0  0  0  0  0
    2.5682   -3.9690   14.7878 O   0  0  0  0  0  0
    3.4339   -3.2971   17.1750 O   0  0  0  0  0  0
    0.8222   -4.0371   16.7233 O   0  0  0  0  0  0
    0.3996    0.9730   18.2760 H   0  0  0  0  0  0
   -7.3219   -2.8624   16.1237 H   0  0  0  0  0  0
   -3.8629    2.6579   16.0168 H   0  0  0  0  0  0
    4.2612   -3.2826   16.6305 H   0  0  0  0  0  0
    1.1550   -4.9383   16.9643 H   0  0  0  0  0  0
  1  2  1  0  0  0
  1  3  1  0  0  0
  3  4  1  0  0  0
  4  5  1  0  0  0
  5  6  1  0  0  0
  6  7  2  0  0  0
  7  8  1  0  0  0
  8  9  2  0  0  0
  8 10  1  0  0  0
 10 11  2  0  0  0
 11 12  1  0  0  0
  4 13  1  0  0  0
 13 14  1  0  0  0
 14 15  1  0  0  0
 15 16  1  0  0  0
 16 17  1  0  0  0
 17 18  2  0  0  0
 17 19  1  0  0  0
 17 20  1  0  0  0
 14  1  1  0  0  0
 11  5  1  0  0  0
  2 21  1  0  0  0
  9 22  1  0  0  0
 12 23  1  0  0  0
 19 24  1  0  0  0
 20 25  1  0  0  0
M  END
>  <CHROM.0>
177.35593977,84.72177458,-48.77838992,-179.81242845,-173.82930665,-11.27438454
74.48582846,-177.41441443,-175.50013345,33.62093923

>  <CHROM.1>
59.92111155,-106.44873639,10.92203511,-63.61551896,157.67146305,75.51298735
-89.28560866,-176.31700027,-1.35541798,-1.14177839,15.97362933,-0.35422859
-0.04578970,0.08208956

>  <RI>
4.38658e+07

>  <Rbt.Current_Directory>
/extra/banzai2/j5wagner/CELPP/2016_10_17_rdock_implementation/normal_run/tutorialVideo/tutorial_rdock_implementation/full_week_run/4-docking/5wrn/SMCSS_4g6w_docking

>  <Rbt.Executable>
rbdock ($Id: //depot/dev/client3/rdock/2013.1/src/exe/rbdock.cxx#4 $)

>  <Rbt.Library>
libRbt.so (2013.1, Build901 2013/11/27)

>  <Rbt.Parameter_File>
/home/j5wagner/env_00/source/rDock/rDock_2013.1_src//data/scripts/dock.prm

>  <Rbt.Receptor>
/extra/banzai2/j5wagner/CELPP/2016_10_17_rdock_implementation/normal_run/tutorialVideo/tutorial_rdock_implementation/full_week_run/4-docking/5wrn/SMCSS_4g6w_tech_prep/rDockGridGenInput.prm

>  <SCORE>
-19.6403

>  <SCORE.INTER>
-16.9206

>  <SCORE.INTER.CONST>
1

>  <SCORE.INTER.POLAR>
-3.67828

>  <SCORE.INTER.REPUL>
0.0984283

>  <SCORE.INTER.ROT>
4

>  <SCORE.INTER.VDW>
-14.3066

>  <SCORE.INTER.norm>
-0.846031

>  <SCORE.INTRA>
-0.829903

>  <SCORE.INTRA.DIHEDRAL>
-2.52963

>  <SCORE.INTRA.DIHEDRAL.0>
8.98184

>  <SCORE.INTRA.POLAR>
0

>  <SCORE.INTRA.POLAR.0>
0

>  <SCORE.INTRA.REPUL>
0

>  <SCORE.INTRA.REPUL.0>
0

>  <SCORE.INTRA.VDW>
0.434912

>  <SCORE.INTRA.VDW.0>
-1.60828

>  <SCORE.INTRA.norm>
-0.0414951

>  <SCORE.RESTR>
0.0130501

>  <SCORE.RESTR.CAVITY>
0.0130501

>  <SCORE.RESTR.norm>
0.000652506

>  <SCORE.SYSTEM>
-1.90279

>  <SCORE.SYSTEM.CONST>
0

>  <SCORE.SYSTEM.DIHEDRAL>
6.08085

>  <SCORE.SYSTEM.POLAR>
-1.34451

>  <SCORE.SYSTEM.REPUL>
0.193635

>  <SCORE.SYSTEM.VDW>
-1.34005

>  <SCORE.SYSTEM.norm>
-0.0951397

>  <SCORE.heavy>
20

>  <SCORE.norm>
-0.982014

$$$$

  rDOCK(R)          3D
libRbt.so/2013.1/901 2013/11/27
 25 26  0  0  0  0  0  0  0  0999 V2000
   -2.6318    1.7266   16.2605 C   0  0  0  0  0  0
   -3.8802    2.2356   16.6660 O   0  0  0  0  0  0
   -2.7264    0.3289   15.7146 C   0  0  0  0  0  0
   -1.6346    0.2964   14.6427 C   0  0  0  0  0  0
   -0.5108   -0.5690   15.0698 N   0  0  0  0  0  0
   -0.5691   -1.9239   14.8616 C   0  0  0  0  0  0
    0.4659   -2.7583   15.2751 C   0  0  0  0  0  0
    1.5739   -2.1890   15.8992 C   0  0  0  0  0  0
    2.5607   -2.9214   16.3081 N   0  0  0  0  0  0
    1.6215   -0.8467   16.0727 N   0  0  0  0  0  0
    0.6126   -0.0330   15.6635 C   0  0  0  0  0  0
    0.7686    1.3422   15.8588 O   0  0  0  0  0  0
   -1.1930    1.6175   14.3796 O   0  0  0  0  0  0
   -2.0249    2.5007   15.0949 C   0  0  0  0  0  0
   -1.2089    3.7142   15.5625 C   0  0  0  0  0  0
   -1.7278    4.9068   15.0088 O   0  0  0  0  0  0
   -1.5831    4.8780   13.3068 P   0  0  0  0  0  0
   -0.1535    4.5712   12.9186 O   0  0  0  0  0  0
   -2.6228    3.7230   12.6313 O   0  0  0  0  0  0
   -1.9976    6.4019   12.7017 O   0  0  0  0  0  0
   -4.4615    2.3126   15.8648 H   0  0  0  0  0  0
    2.5726   -3.9606   16.1946 H   0  0  0  0  0  0
    1.6114    1.7732   16.2122 H   0  0  0  0  0  0
   -3.5315    3.9877   12.9234 H   0  0  0  0  0  0
   -1.2897    7.0065   13.0395 H   0  0  0  0  0  0
  1  2  1  0  0  0
  1  3  1  0  0  0
  3  4  1  0  0  0
  4  5  1  0  0  0
  5  6  1  0  0  0
  6  7  2  0  0  0
  7  8  1  0  0  0
  8  9  2  0  0  0
  8 10  1  0  0  0
 10 11  2  0  0  0
 11 12  1  0  0  0
  4 13  1  0  0  0
 13 14  1  0  0  0
 14 15  1  0  0  0
 15 16  1  0  0  0
 16 17  1  0  0  0
 17 18  2  0  0  0
 17 19  1  0  0  0
 17 20  1  0  0  0
 14  1  1  0  0  0
 11  5  1  0  0  0
  2 21  1  0  0  0
  9 22  1  0  0  0
 12 23  1  0  0  0
 19 24  1  0  0  0
 20 25  1  0  0  0
M  END
>  <CHROM.0>
-179.22198928,79.48125744,-48.21280599,69.55062238,-58.32477909,8.75135720
70.86904231,-64.44138023,11.27043897,-47.49361068

>  <CHROM.1>
-64.37488309,84.38452224,-174.18477702,-121.13589266,-63.40221259,-52.75188458
58.58421790,66.15029721,-0.93697014,1.71311371,14.85418260,1.97286806,0.31595987
-0.44222552

>  <RI>
4.38658e+07

>  <Rbt.Current_Directory>
/extra/banzai2/j5wagner/CELPP/2016_10_17_rdock_implementation/normal_run/tutorialVideo/tutorial_rdock_implementation/full_week_run/4-docking/5wrn/SMCSS_4g6w_docking

>  <Rbt.Executable>
rbdock ($Id: //depot/dev/client3/rdock/2013.1/src/exe/rbdock.cxx#4 $)

>  <Rbt.Library>
libRbt.so (2013.1, Build901 2013/11/27)

>  <Rbt.Parameter_File>
/home/j5wagner/env_00/source/rDock/rDock_2013.1_src//data/scripts/dock.prm

>  <Rbt.Receptor>
/extra/banzai2/j5wagner/CELPP/2016_10_17_rdock_implementation/normal_run/tutorialVideo/tutorial_rdock_implementation/full_week_run/4-docking/5wrn/SMCSS_4g6w_tech_prep/rDockGridGenInput.prm

>  <SCORE>
-18.5417

>  <SCORE.INTER>
-16.9674

>  <SCORE.INTER.CONST>
1

>  <SCORE.INTER.POLAR>
-4.15764

>  <SCORE.INTER.REPUL>
0.0982983

>  <SCORE.INTER.ROT>
4

>  <SCORE.INTER.VDW>
-12.7229

>  <SCORE.INTER.norm>
-0.848368

>  <SCORE.INTRA>
-0.0364533

>  <SCORE.INTRA.DIHEDRAL>
-0.923227

>  <SCORE.INTRA.DIHEDRAL.0>
8.98184

>  <SCORE.INTRA.POLAR>
0

>  <SCORE.INTRA.POLAR.0>
0

>  <SCORE.INTRA.REPUL>
0

>  <SCORE.INTRA.REPUL.0>
0

>  <SCORE.INTRA.VDW>
0.42516

>  <SCORE.INTRA.VDW.0>
-1.60828

>  <SCORE.INTRA.norm>
-0.00182266

>  <SCORE.RESTR>
1.02371

>  <SCORE.RESTR.CAVITY>
1.02371

>  <SCORE.RESTR.norm>
0.0511856

>  <SCORE.SYSTEM>
-2.56164

>  <SCORE.SYSTEM.CONST>
0

>  <SCORE.SYSTEM.DIHEDRAL>
6.36188

>  <SCORE.SYSTEM.POLAR>
-1.75446

>  <SCORE.SYSTEM.REPUL>
0.192666

>  <SCORE.SYSTEM.VDW>
-0.740752

>  <SCORE.SYSTEM.norm>
-0.128082

>  <SCORE.heavy>
20

>  <SCORE.norm>
-0.927086

$$$$

  rDOCK(R)          3D
libRbt.so/2013.1/901 2013/11/27
 25 26  0  0  0  0  0  0  0  0999 V2000
   -3.5588    2.8596   16.2463 C   0  0  0  0  0  0
   -4.5211    3.8516   16.5144 O   0  0  0  0  0  0
   -2.2028    3.2050   16.7966 C   0  0  0  0  0  0
   -1.6190    1.8411   17.1720 C   0  0  0  0  0  0
   -0.5129    1.4779   16.2560 N   0  0  0  0  0  0
   -0.5458    1.8812   14.9449 C   0  0  0  0  0  0
    0.4721    1.5322   14.0614 C   0  0  0  0  0  0
    1.5368    0.7697   14.5369 C   0  0  0  0  0  0
    2.5058    0.4134   13.7550 N   0  0  0  0  0  0
    1.5611    0.4031   15.8404 N   0  0  0  0  0  0
    0.5692    0.7493   16.7029 C   0  0  0  0  0  0
    0.7001    0.3501   18.0360 O   0  0  0  0  0  0
   -2.6469    0.8653   17.1469 O   0  0  0  0  0  0
   -3.8685    1.5315   16.9291 C   0  0  0  0  0  0
   -4.7971    0.6452   16.0868 C   0  0  0  0  0  0
   -6.1491    1.0022   16.2936 O   0  0  0  0  0  0
   -7.1760   -0.2766   15.8154 P   0  0  0  0  0  0
   -8.2234   -0.5188   16.8798 O   0  0  0  0  0  0
   -7.9280    0.0726   14.3376 O   0  0  0  0  0  0
   -6.2477   -1.6786   15.6346 O   0  0  0  0  0  0
   -5.4106    3.5065   16.2397 H   0  0  0  0  0  0
    2.5345    0.6738   12.7429 H   0  0  0  0  0  0
   -0.0117    0.4830   18.7407 H   0  0  0  0  0  0
   -7.1904    0.1451   13.6805 H   0  0  0  0  0  0
   -6.8884   -2.4221   15.7673 H   0  0  0  0  0  0
  1  2  1  0  0  0
  1  3  1  0  0  0
  3  4  1  0  0  0
  4  5  1  0  0  0
  5  6  1  0  0  0
  6  7  2  0  0  0
  7  8  1  0  0  0
  8  9  2  0  0  0
  8 10  1  0  0  0
 10 11  2  0  0  0
 11 12  1  0  0  0
  4 13  1  0  0  0
 13 14  1  0  0  0
 14 15  1  0  0  0
 15 16  1  0  0  0
 16 17  1  0  0  0
 17 18  2  0  0  0
 17 19  1  0  0  0
 17 20  1  0  0  0
 14  1  1  0  0  0
 11  5  1  0  0  0
  2 21  1  0  0  0
  9 22  1  0  0  0
 12 23  1  0  0  0
 19 24  1  0  0  0
 20 25  1  0  0  0
M  END
>  <CHROM.0>
-60.81136961,174.75789220,-49.46705865,-178.45968923,-175.91818856,177.83099744
179.56284239,-178.40316744,-175.96129394,-177.16331887

>  <CHROM.1>
-172.18253846,-32.71552517,6.03437754,-83.76548839,-160.42656838,133.49179696
62.89589794,155.24699031,-3.06463696,0.93395859,16.00543710,3.05212644,-0.09587214
-2.60874397

>  <RI>
4.38658e+07

>  <Rbt.Current_Directory>
/extra/banzai2/j5wagner/CELPP/2016_10_17_rdock_implementation/normal_run/tutorialVideo/tutorial_rdock_implementation/full_week_run/4-docking/5wrn/SMCSS_4g6w_docking

>  <Rbt.Executable>
rbdock ($Id: //depot/dev/client3/rdock/2013.1/src/exe/rbdock.cxx#4 $)

>  <Rbt.Library>
libRbt.so (2013.1, Build901 2013/11/27)

>  <Rbt.Parameter_File>
/home/j5wagner/env_00/source/rDock/rDock_2013.1_src//data/scripts/dock.prm

>  <Rbt.Receptor>
/extra/banzai2/j5wagner/CELPP/2016_10_17_rdock_implementation/normal_run/tutorialVideo/tutorial_rdock_implementation/full_week_run/4-docking/5wrn/SMCSS_4g6w_tech_prep/rDockGridGenInput.prm

>  <SCORE>
-18.3632

>  <SCORE.INTER>
-16.2269

>  <SCORE.INTER.CONST>
1

>  <SCORE.INTER.POLAR>
-3.66963

>  <SCORE.INTER.REPUL>
0.0334406

>  <SCORE.INTER.ROT>
4

>  <SCORE.INTER.VDW>
-13.3173

>  <SCORE.INTER.norm>
-0.811344

>  <SCORE.INTRA>
1.81035

>  <SCORE.INTRA.DIHEDRAL>
0.239141

>  <SCORE.INTRA.DIHEDRAL.0>
8.98184

>  <SCORE.INTRA.POLAR>
0

>  <SCORE.INTRA.POLAR.0>
0

>  <SCORE.INTRA.REPUL>
0

>  <SCORE.INTRA.REPUL.0>
0

>  <SCORE.INTRA.VDW>
1.69078

>  <SCORE.INTRA.VDW.0>
-1.60828

>  <SCORE.INTRA.norm>
0.0905177

>  <SCORE.RESTR>
0.501526

>  <SCORE.RESTR.CAVITY>
0.501526

>  <SCORE.RESTR.norm>
0.0250763

>  <SCORE.SYSTEM>
-4.44819

>  <SCORE.SYSTEM.CONST>
0

>  <SCORE.SYSTEM.DIHEDRAL>
0.799614

>  <SCORE.SYSTEM.POLAR>
-1.1263

>  <SCORE.SYSTEM.VDW>
-1.01856

>  <SCORE.SYSTEM.norm>
-0.22241

>  <SCORE.heavy>
20

>  <SCORE.norm>
-0.91816

$$$$

  rDOCK(R)          3D
libRbt.so/2013.1/901 2013/11/27
 25 26  0  0  0  0  0  0  0  0999 V2000
   -2.2428    0.6821   18.5811 C   0  0  0  0  0  0
   -1.6787    1.4946   19.5828 O   0  0  0  0  0  0
   -3.4152    1.3324   17.9005 C   0  0  0  0  0  0
   -3.3252    0.8049   16.4667 C   0  0  0  0  0  0
   -4.4310   -0.1408   16.1893 N   0  0  0  0  0  0
   -5.5640    0.2950   15.5497 C   0  0  0  0  0  0
   -6.6244   -0.5716   15.2989 C   0  0  0  0  0  0
   -6.5107   -1.9004   15.7023 C   0  0  0  0  0  0
   -7.4706   -2.7456   15.4981 N   0  0  0  0  0  0
   -5.3737   -2.3148   16.3102 N   0  0  0  0  0  0
   -4.3372   -1.4687   16.5493 C   0  0  0  0  0  0
   -3.1938   -1.9983   17.1541 O   0  0  0  0  0  0
   -2.0632    0.1903   16.2690 O   0  0  0  0  0  0
   -1.2872    0.4183   17.4221 C   0  0  0  0  0  0
   -0.3775   -0.7914   17.6798 C   0  0  0  0  0  0
    0.5706   -0.9320   16.6409 O   0  0  0  0  0  0
    0.7396   -2.5781   16.2161 P   0  0  0  0  0  0
    1.4418   -2.6939   14.8811 O   0  0  0  0  0  0
    1.6115   -3.4211   17.3994 O   0  0  0  0  0  0
   -0.8004   -3.2645   16.0838 O   0  0  0  0  0  0
   -1.0302    0.9486   20.0998 H   0  0  0  0  0  0
   -8.3658   -2.4755   15.0307 H   0  0  0  0  0  0
   -3.0926   -2.9659   17.4272 H   0  0  0  0  0  0
    1.0876   -3.3161   18.2335 H   0  0  0  0  0  0
   -1.2410   -2.7532   15.3590 H   0  0  0  0  0  0
  1  2  1  0  0  0
  1  3  1  0  0  0
  3  4  1  0  0  0
  4  5  1  0  0  0
  5  6  1  0  0  0
  6  7  2  0  0  0
  7  8  1  0  0  0
  8  9  2  0  0  0
  8 10  1  0  0  0
 10 11  2  0  0  0
 11 12  1  0  0  0
  4 13  1  0  0  0
 13 14  1  0  0  0
 14 15  1  0  0  0
 15 16  1  0  0  0
 16 17  1  0  0  0
 17 18  2  0  0  0
 17 19  1  0  0  0
 17 20  1  0  0  0
 14  1  1  0  0  0
 11  5  1  0  0  0
  2 21  1  0  0  0
  9 22  1  0  0  0
 12 23  1  0  0  0
 19 24  1  0  0  0
 20 25  1  0  0  0
M  END
>  <CHROM.0>
-55.04823257,-57.38109539,-48.76464013,64.36590625,-175.43296492,11.83898966
179.52040917,-176.88777126,-177.85600551,176.04101019

>  <CHROM.1>
169.59384726,97.27027691,-179.82123542,-174.80970802,-138.16192958,164.41642769
59.47956697,61.27444501,-2.37307929,-1.12309700,16.66887382,-3.04345219,0.16747145
-2.59704093

>  <RI>
4.38658e+07

>  <Rbt.Current_Directory>
/extra/banzai2/j5wagner/CELPP/2016_10_17_rdock_implementation/normal_run/tutorialVideo/tutorial_rdock_implementation/full_week_run/4-docking/5wrn/SMCSS_4g6w_docking

>  <Rbt.Executable>
rbdock ($Id: //depot/dev/client3/rdock/2013.1/src/exe/rbdock.cxx#4 $)

>  <Rbt.Library>
libRbt.so (2013.1, Build901 2013/11/27)

>  <Rbt.Parameter_File>
/home/j5wagner/env_00/source/rDock/rDock_2013.1_src//data/scripts/dock.prm

>  <Rbt.Receptor>
/extra/banzai2/j5wagner/CELPP/2016_10_17_rdock_implementation/normal_run/tutorialVideo/tutorial_rdock_implementation/full_week_run/4-docking/5wrn/SMCSS_4g6w_tech_prep/rDockGridGenInput.prm

>  <SCORE>
-18.0687

>  <SCORE.INTER>
-11.3578

>  <SCORE.INTER.CONST>
1

>  <SCORE.INTER.POLAR>
-1.59218

>  <SCORE.INTER.REPUL>
0.0790747

>  <SCORE.INTER.ROT>
4

>  <SCORE.INTER.VDW>
-15.7398

>  <SCORE.INTER.norm>
-0.567891

>  <SCORE.INTRA>
-1.19505

>  <SCORE.INTRA.DIHEDRAL>
0.0732076

>  <SCORE.INTRA.DIHEDRAL.0>
8.98184

>  <SCORE.INTRA.POLAR>
0

>  <SCORE.INTRA.POLAR.0>
0

>  <SCORE.INTRA.REPUL>
0

>  <SCORE.INTRA.REPUL.0>
0

>  <SCORE.INTRA.VDW>
-1.23166

>  <SCORE.INTRA.VDW.0>
-1.60828

>  <SCORE.INTRA.norm>
-0.0597527

>  <SCORE.RESTR>
0.00561623

>  <SCORE.RESTR.CAVITY>
0.00561623

>  <SCORE.RESTR.norm>
0.000280812

>  <SCORE.SYSTEM>
-5.52143

>  <SCORE.SYSTEM.CONST>
0

>  <SCORE.SYSTEM.DIHEDRAL>
1.14049

>  <SCORE.SYSTEM.POLAR>
-1.64161

>  <SCORE.SYSTEM.VDW>
-0.510183

>  <SCORE.SYSTEM.norm>
-0.276071

>  <SCORE.heavy>
20

>  <SCORE.norm>
-0.903434

$$$$

  rDOCK(R)          3D
libRbt.so/2013.1/901 2013/11/27
 25 26  0  0  0  0  0  0  0  0999 V2000
   -2.2645   -1.0519   17.7503 C   0  0  0  0  0  0
   -3.5969   -0.8415   18.1534 O   0  0  0  0  0  0
   -2.1641   -1.8172   16.4601 C   0  0  0  0  0  0
   -0.9092   -1.2363   15.8045 C   0  0  0  0  0  0
    0.1876   -2.2320   15.8059 N   0  0  0  0  0  0
    0.7365   -2.6482   16.9926 C   0  0  0  0  0  0
    1.7829   -3.5663   17.0158 C   0  0  0  0  0  0
    2.2599   -4.0662   15.8058 C   0  0  0  0  0  0
    3.2352   -4.9176   15.7721 N   0  0  0  0  0  0
    1.6872   -3.6601   14.6477 N   0  0  0  0  0  0
    0.6621   -2.7679   14.6272 C   0  0  0  0  0  0
    0.1169   -2.4347   13.3840 O   0  0  0  0  0  0
   -0.5276   -0.0522   16.4839 O   0  0  0  0  0  0
   -1.5295    0.2451   17.4280 C   0  0  0  0  0  0
   -0.8940    0.8802   18.6730 C   0  0  0  0  0  0
   -1.7044    0.6648   19.8110 O   0  0  0  0  0  0
   -1.0886    1.5345   21.1462 P   0  0  0  0  0  0
   -1.3024    0.7423   22.4172 O   0  0  0  0  0  0
    0.5613    1.8632   20.9443 O   0  0  0  0  0  0
   -1.9234    3.0001   21.2701 O   0  0  0  0  0  0
   -4.0606   -0.3256   17.4429 H   0  0  0  0  0  0
    3.7078   -5.2639   16.6379 H   0  0  0  0  0  0
   -0.0903   -3.1053   12.6570 H   0  0  0  0  0  0
    0.6570    2.8337   21.1180 H   0  0  0  0  0  0
   -2.7846    2.7624   21.6974 H   0  0  0  0  0  0
  1  2  1  0  0  0
  1  3  1  0  0  0
  3  4  1  0  0  0
  4  5  1  0  0  0
  5  6  1  0  0  0
  6  7  2  0  0  0
  7  8  1  0  0  0
  8  9  2  0  0  0
  8 10  1  0  0  0
 10 11  2  0  0  0
 11 12  1  0  0  0
  4 13  1  0  0  0
 13 14  1  0  0  0
 14 15  1  0  0  0
 15 16  1  0  0  0
 16 17  1  0  0  0
 17 18  2  0  0  0
 17 19  1  0  0  0
 17 20  1  0  0  0
 14  1  1  0  0  0
 11  5  1  0  0  0
  2 21  1  0  0  0
  9 22  1  0  0  0
 12 23  1  0  0  0
 19 24  1  0  0  0
 20 25  1  0  0  0
M  END
>  <CHROM.0>
53.66343885,-47.66513459,62.32796403,65.84541800,-57.34248877,-177.78553945
71.46030055,62.90461344,4.08674900,68.57391092

>  <CHROM.1>
-59.88397255,-65.67790326,-135.91223501,-34.91833340,-173.09075572,-144.64519019
129.78837992,78.71027401,-0.43939957,-0.85502619,17.82843204,1.94396151,-0.46507677
1.03698963

>  <RI>
4.38658e+07

>  <Rbt.Current_Directory>
/extra/banzai2/j5wagner/CELPP/2016_10_17_rdock_implementation/normal_run/tutorialVideo/tutorial_rdock_implementation/full_week_run/4-docking/5wrn/SMCSS_4g6w_docking

>  <Rbt.Executable>
rbdock ($Id: //depot/dev/client3/rdock/2013.1/src/exe/rbdock.cxx#4 $)

>  <Rbt.Library>
libRbt.so (2013.1, Build901 2013/11/27)

>  <Rbt.Parameter_File>
/home/j5wagner/env_00/source/rDock/rDock_2013.1_src//data/scripts/dock.prm

>  <Rbt.Receptor>
/extra/banzai2/j5wagner/CELPP/2016_10_17_rdock_implementation/normal_run/tutorialVideo/tutorial_rdock_implementation/full_week_run/4-docking/5wrn/SMCSS_4g6w_tech_prep/rDockGridGenInput.prm

>  <SCORE>
-16.7933

>  <SCORE.INTER>
-19.4351

>  <SCORE.INTER.CONST>
1

>  <SCORE.INTER.POLAR>
-4.21751

>  <SCORE.INTER.REPUL>
0.124688

>  <SCORE.INTER.ROT>
4

>  <SCORE.INTER.VDW>
-15.119

>  <SCORE.INTER.norm>
-0.971755

>  <SCORE.INTRA>
2.01832

>  <SCORE.INTRA.DIHEDRAL>
2.35689

>  <SCORE.INTRA.DIHEDRAL.0>
8.98184

>  <SCORE.INTRA.POLAR>
0

>  <SCORE.INTRA.POLAR.0>
0

>  <SCORE.INTRA.REPUL>
0

>  <SCORE.INTRA.REPUL.0>
0

>  <SCORE.INTRA.VDW>
0.839872

>  <SCORE.INTRA.VDW.0>
-1.60828

>  <SCORE.INTRA.norm>
0.100916

>  <SCORE.RESTR>
0.717566

>  <SCORE.RESTR.CAVITY>
0.717566

>  <SCORE.RESTR.norm>
0.0358783

>  <SCORE.SYSTEM>
-0.0940533

>  <SCORE.SYSTEM.CONST>
0

>  <SCORE.SYSTEM.DIHEDRAL>
5.94123

>  <SCORE.SYSTEM.POLAR>
-0.559997

>  <SCORE.SYSTEM.VDW>
-1.16068

>  <SCORE.SYSTEM.norm>
-0.00470267

>  <SCORE.heavy>
20

>  <SCORE.norm>
-0.839663

$$$$

  rDOCK(R)          3D
libRbt.so/2013.1/901 2013/11/27
 25 26  0  0  0  0  0  0  0  0999 V2000
   -0.1880   -0.0906   14.3415 C   0  0  0  0  0  0
    0.5951    0.2487   13.2219 O   0  0  0  0  0  0
   -1.0591    1.0443   14.8040 C   0  0  0  0  0  0
   -2.3057    0.3347   15.3372 C   0  0  0  0  0  0
   -2.3771    0.4455   16.8127 N   0  0  0  0  0  0
   -1.8886    1.5623   17.4425 C   0  0  0  0  0  0
   -1.9254    1.6774   18.8295 C   0  0  0  0  0  0
   -2.4795    0.6364   19.5716 C   0  0  0  0  0  0
   -2.5325    0.6913   20.8645 N   0  0  0  0  0  0
   -2.9778   -0.4459   18.9279 N   0  0  0  0  0  0
   -2.9461   -0.5542   17.5734 C   0  0  0  0  0  0
   -3.5138   -1.6957   17.0004 O   0  0  0  0  0  0
   -2.2886   -1.0216   14.9252 O   0  0  0  0  0  0
   -1.2015   -1.1913   14.0460 C   0  0  0  0  0  0
   -0.6067   -2.5954   14.2253 C   0  0  0  0  0  0
   -0.3174   -2.8437   15.5865 O   0  0  0  0  0  0
    1.3675   -2.7598   15.8558 P   0  0  0  0  0  0
    1.8455   -1.3357   15.6758 O   0  0  0  0  0  0
    1.7587   -3.3054   17.4116 O   0  0  0  0  0  0
    2.1472   -3.7441   14.7229 O   0  0  0  0  0  0
    1.2424    0.9506   13.4944 H   0  0  0  0  0  0
   -2.1645    1.5057   21.4069 H   0  0  0  0  0  0
   -3.6262   -2.5766   17.4824 H   0  0  0  0  0  0
    1.5959   -4.2822   17.3939 H   0  0  0  0  0  0
    1.8593   -4.6640   14.9502 H   0  0  0  0  0  0
  1  2  1  0  0  0
  1  3  1  0  0  0
  3  4  1  0  0  0
  4  5  1  0  0  0
  5  6  1  0  0  0
  6  7  2  0  0  0
  7  8  1  0  0  0
  8  9  2  0  0  0
  8 10  1  0  0  0
 10 11  2  0  0  0
 11 12  1  0  0  0
  4 13  1  0  0  0
 13 14  1  0  0  0
 14 15  1  0  0  0
 15 16  1  0  0  0
 16 17  1  0  0  0
 17 18  2  0  0  0
 17 19  1  0  0  0
 17 20  1  0  0  0
 14  1  1  0  0  0
 11  5  1  0  0  0
  2 21  1  0  0  0
  9 22  1  0  0  0
 12 23  1  0  0  0
 19 24  1  0  0  0
 20 25  1  0  0  0
M  END
>  <CHROM.0>
-55.60638244,173.70605295,-179.96974176,-178.18714771,-57.00767514,-9.40920825
-68.53496574,179.36707781,-176.83065387,-176.65541308

>  <CHROM.1>
65.63455311,32.45989745,156.42830522,67.61577539,-105.45154924,67.89742670
70.06586169,-65.69742624,-0.81994046,-0.96034496,16.27871022,0.48798608,0.78338282
-1.32508136

>  <RI>
4.38658e+07

>  <Rbt.Current_Directory>
/extra/banzai2/j5wagner/CELPP/2016_10_17_rdock_implementation/normal_run/tutorialVideo/tutorial_rdock_implementation/full_week_run/4-docking/5wrn/SMCSS_4g6w_docking

>  <Rbt.Executable>
rbdock ($Id: //depot/dev/client3/rdock/2013.1/src/exe/rbdock.cxx#4 $)

>  <Rbt.Library>
libRbt.so (2013.1, Build901 2013/11/27)

>  <Rbt.Parameter_File>
/home/j5wagner/env_00/source/rDock/rDock_2013.1_src//data/scripts/dock.prm

>  <Rbt.Receptor>
/extra/banzai2/j5wagner/CELPP/2016_10_17_rdock_implementation/normal_run/tutorialVideo/tutorial_rdock_implementation/full_week_run/4-docking/5wrn/SMCSS_4g6w_tech_prep/rDockGridGenInput.prm

>  <SCORE>
-16.5813

>  <SCORE.INTER>
-19.9553

>  <SCORE.INTER.CONST>
1

>  <SCORE.INTER.POLAR>
-4.24148

>  <SCORE.INTER.REPUL>
0.0296431

>  <SCORE.INTER.ROT>
4

>  <SCORE.INTER.VDW>
-15.0825

>  <SCORE.INTER.norm>
-0.997767

>  <SCORE.INTRA>
1.99921

>  <SCORE.INTRA.DIHEDRAL>
1.2349

>  <SCORE.INTRA.DIHEDRAL.0>
8.98184

>  <SCORE.INTRA.POLAR>
0

>  <SCORE.INTRA.POLAR.0>
0

>  <SCORE.INTRA.REPUL>
0

>  <SCORE.INTRA.REPUL.0>
0

>  <SCORE.INTRA.VDW>
1.38176

>  <SCORE.INTRA.VDW.0>
-1.60828

>  <SCORE.INTRA.norm>
0.0999603

>  <SCORE.RESTR>
0.00379458

>  <SCORE.RESTR.CAVITY>
0.00379458

>  <SCORE.RESTR.norm>
0.000189729

>  <SCORE.SYSTEM>
1.37108

>  <SCORE.SYSTEM.CONST>
0

>  <SCORE.SYSTEM.DIHEDRAL>
0.815829

>  <SCORE.SYSTEM.POLAR>
-0.318268

>  <SCORE.SYSTEM.REPUL>
0.477665

>  <SCORE.SYSTEM.VDW>
-0.343046

>  <SCORE.SYSTEM.norm>
0.068554

>  <SCORE.heavy>
20

>  <SCORE.norm>
-0.829063

$$$$

  rDOCK(R)          3D
libRbt.so/2013.1/901 2013/11/27
 25 26  0  0  0  0  0  0  0  0999 V2000
   -1.3999   -1.7205   13.4023 C   0  0  0  0  0  0
   -0.6324   -2.2287   12.3372 O   0  0  0  0  0  0
   -2.7326   -2.4042   13.5331 C   0  0  0  0  0  0
   -2.9901   -2.3849   15.0416 C   0  0  0  0  0  0
   -4.0907   -1.4495   15.3703 N   0  0  0  0  0  0
   -3.8067   -0.1910   15.8373 C   0  0  0  0  0  0
   -4.8257    0.6962   16.1733 C   0  0  0  0  0  0
   -6.1478    0.2851   16.0167 C   0  0  0  0  0  0
   -7.1324    1.0698   16.3202 N   0  0  0  0  0  0
   -6.4052   -0.9527   15.5311 N   0  0  0  0  0  0
   -5.4091   -1.8155   15.1985 C   0  0  0  0  0  0
   -5.7757   -3.0591   14.6760 O   0  0  0  0  0  0
   -1.7964   -2.0304   15.7189 O   0  0  0  0  0  0
   -0.7618   -1.9679   14.7653 C   0  0  0  0  0  0
    0.2320   -0.8637   15.1531 C   0  0  0  0  0  0
    0.5606   -0.9487   16.5253 O   0  0  0  0  0  0
   -0.4495    0.0832   17.4383 P   0  0  0  0  0  0
   -1.6896   -0.6662   17.8732 O   0  0  0  0  0  0
    0.3674    0.6809   18.7972 O   0  0  0  0  0  0
   -0.9130    1.3870   16.4660 O   0  0  0  0  0  0
   -0.4818   -3.1974   12.4948 H   0  0  0  0  0  0
   -6.9858    2.0346   16.6953 H   0  0  0  0  0  0
   -5.1201   -3.7410   14.3208 H   0  0  0  0  0  0
   -0.2806    1.2785   19.2489 H   0  0  0  0  0  0
   -1.5126    0.9906   15.7847 H   0  0  0  0  0  0
  1  2  1  0  0  0
  1  3  1  0  0  0
  3  4  1  0  0  0
  4  5  1  0  0  0
  5  6  1  0  0  0
  6  7  2  0  0  0
  7  8  1  0  0  0
  8  9  2  0  0  0
  8 10  1  0  0  0
 10 11  2  0  0  0
 11 12  1  0  0  0
  4 13  1  0  0  0
 13 14  1  0  0  0
 14 15  1  0  0  0
 15 16  1  0  0  0
 16 17  1  0  0  0
 17 18  2  0  0  0
 17 19  1  0  0  0
 17 20  1  0  0  0
 14  1  1  0  0  0
 11  5  1  0  0  0
  2 21  1  0  0  0
  9 22  1  0  0  0
 12 23  1  0  0  0
 19 24  1  0  0  0
 20 25  1  0  0  0
M  END
>  <CHROM.0>
-60.61644104,-55.71576571,-48.79325289,-61.21576068,64.53736481,4.84335803
178.00994515,63.01480403,-174.56232268,-170.53035732

>  <CHROM.1>
-59.53732646,-99.67024218,-5.16261116,166.19023193,-94.25050727,90.08694735
178.73010007,68.73365849,-2.56098135,-0.86357809,15.74069710,-0.22420020
0.05620899,-2.24295290

>  <RI>
4.38658e+07

>  <Rbt.Current_Directory>
/extra/banzai2/j5wagner/CELPP/2016_10_17_rdock_implementation/normal_run/tutorialVideo/tutorial_rdock_implementation/full_week_run/4-docking/5wrn/SMCSS_4g6w_docking

>  <Rbt.Executable>
rbdock ($Id: //depot/dev/client3/rdock/2013.1/src/exe/rbdock.cxx#4 $)

>  <Rbt.Library>
libRbt.so (2013.1, Build901 2013/11/27)

>  <Rbt.Parameter_File>
/home/j5wagner/env_00/source/rDock/rDock_2013.1_src//data/scripts/dock.prm

>  <Rbt.Receptor>
/extra/banzai2/j5wagner/CELPP/2016_10_17_rdock_implementation/normal_run/tutorialVideo/tutorial_rdock_implementation/full_week_run/4-docking/5wrn/SMCSS_4g6w_tech_prep/rDockGridGenInput.prm

>  <SCORE>
-16.5494

>  <SCORE.INTER>
-12.3549

>  <SCORE.INTER.CONST>
1

>  <SCORE.INTER.POLAR>
-1.91292

>  <SCORE.INTER.REPUL>
0

>  <SCORE.INTER.ROT>
4

>  <SCORE.INTER.VDW>
-15.2509

>  <SCORE.INTER.norm>
-0.617743

>  <SCORE.INTRA>
-0.25825

>  <SCORE.INTRA.DIHEDRAL>
0.0201532

>  <SCORE.INTRA.DIHEDRAL.0>
8.98184

>  <SCORE.INTRA.POLAR>
0

>  <SCORE.INTRA.POLAR.0>
0

>  <SCORE.INTRA.REPUL>
0

>  <SCORE.INTRA.REPUL.0>
0

>  <SCORE.INTRA.VDW>
-0.268327

>  <SCORE.INTRA.VDW.0>
-1.60828

>  <SCORE.INTRA.norm>
-0.0129125

>  <SCORE.RESTR>
0

>  <SCORE.RESTR.CAVITY>
0

>  <SCORE.RESTR.norm>
0

>  <SCORE.SYSTEM>
-3.93627

>  <SCORE.SYSTEM.CONST>
0

>  <SCORE.SYSTEM.DIHEDRAL>
1.05408

>  <SCORE.SYSTEM.POLAR>
-1.12486

>  <SCORE.SYSTEM.VDW>
-0.638774

>  <SCORE.SYSTEM.norm>
-0.196813

>  <SCORE.heavy>
20

>  <SCORE.norm>
-0.827469

$$$$

  rDOCK(R)          3D
libRbt.so/2013.1/901 2013/11/27
 25 26  0  0  0  0  0  0  0  0999 V2000
   -1.7193   -1.0923   14.0128 C   0  0  0  0  0  0
   -0.5592   -1.0590   13.2159 O   0  0  0  0  0  0
   -2.7416   -2.0714   13.5061 C   0  0  0  0  0  0
   -3.4109   -2.5742   14.7873 C   0  0  0  0  0  0
   -4.7984   -2.0647   14.8846 N   0  0  0  0  0  0
   -5.0344   -0.7132   14.9070 C   0  0  0  0  0  0
   -6.3287   -0.2129   15.0203 C   0  0  0  0  0  0
   -7.3883   -1.1140   15.1012 C   0  0  0  0  0  0
   -8.6105   -0.7005   15.2137 N   0  0  0  0  0  0
   -7.1346   -2.4434   15.0528 N   0  0  0  0  0  0
   -5.8708   -2.9301   14.9366 C   0  0  0  0  0  0
   -5.7140   -4.3170   14.8633 O   0  0  0  0  0  0
   -2.6394   -2.1781   15.9087 O   0  0  0  0  0  0
   -1.4527   -1.5901   15.4296 C   0  0  0  0  0  0
   -1.0192   -0.4592   16.3732 C   0  0  0  0  0  0
   -1.3932   -0.7507   17.7049 O   0  0  0  0  0  0
   -1.4119    0.6799   18.6384 P   0  0  0  0  0  0
   -0.0268    0.9571   19.1802 O   0  0  0  0  0  0
   -1.9422    1.9975   17.7144 O   0  0  0  0  0  0
   -2.4730    0.4654   19.9378 O   0  0  0  0  0  0
   -0.7561   -0.5295   12.3994 H   0  0  0  0  0  0
   -8.8580    0.3145   15.2523 H   0  0  0  0  0  0
   -4.8516   -4.8023   15.0682 H   0  0  0  0  0  0
   -1.7128    2.7996   18.2484 H   0  0  0  0  0  0
   -2.6413    1.3804   20.2773 H   0  0  0  0  0  0
  1  2  1  0  0  0
  1  3  1  0  0  0
  3  4  1  0  0  0
  4  5  1  0  0  0
  5  6  1  0  0  0
  6  7  2  0  0  0
  7  8  1  0  0  0
  8  9  2  0  0  0
  8 10  1  0  0  0
 10 11  2  0  0  0
 11 12  1  0  0  0
  4 13  1  0  0  0
 13 14  1  0  0  0
 14 15  1  0  0  0
 15 16  1  0  0  0
 16 17  1  0  0  0
 17 18  2  0  0  0
 17 19  1  0  0  0
 17 20  1  0  0  0
 14  1  1  0  0  0
 11  5  1  0  0  0
  2 21  1  0  0  0
  9 22  1  0  0  0
 12 23  1  0  0  0
 19 24  1  0  0  0
 20 25  1  0  0  0
M  END
>  <CHROM.0>
-170.56731423,176.21837669,62.15662511,-60.62384413,-53.54539110,-164.19818438
74.95724463,-62.54624050,29.14631539,-166.83908195

>  <CHROM.1>
77.75524966,-59.52912510,20.78176022,151.70689450,-160.50139121,-86.12443508
-166.47570523,-164.19929537,-3.35953116,-0.96176914,16.05889362,-0.69572532
-0.06522843,-2.14798122

>  <RI>
4.38658e+07

>  <Rbt.Current_Directory>
/extra/banzai2/j5wagner/CELPP/2016_10_17_rdock_implementation/normal_run/tutorialVideo/tutorial_rdock_implementation/full_week_run/4-docking/5wrn/SMCSS_4g6w_docking

>  <Rbt.Executable>
rbdock ($Id: //depot/dev/client3/rdock/2013.1/src/exe/rbdock.cxx#4 $)

>  <Rbt.Library>
libRbt.so (2013.1, Build901 2013/11/27)

>  <Rbt.Parameter_File>
/home/j5wagner/env_00/source/rDock/rDock_2013.1_src//data/scripts/dock.prm

>  <Rbt.Receptor>
/extra/banzai2/j5wagner/CELPP/2016_10_17_rdock_implementation/normal_run/tutorialVideo/tutorial_rdock_implementation/full_week_run/4-docking/5wrn/SMCSS_4g6w_tech_prep/rDockGridGenInput.prm

>  <SCORE>
-16.505

>  <SCORE.INTER>
-17.5593

>  <SCORE.INTER.CONST>
1

>  <SCORE.INTER.POLAR>
-3.26502

>  <SCORE.INTER.REPUL>
0.0201121

>  <SCORE.INTER.ROT>
4

>  <SCORE.INTER.VDW>
-15.9588

>  <SCORE.INTER.norm>
-0.877964

>  <SCORE.INTRA>
0.948126

>  <SCORE.INTRA.DIHEDRAL>
1.24573

>  <SCORE.INTRA.DIHEDRAL.0>
8.98184

>  <SCORE.INTRA.POLAR>
0

>  <SCORE.INTRA.POLAR.0>
0

>  <SCORE.INTRA.REPUL>
0

>  <SCORE.INTRA.REPUL.0>
0

>  <SCORE.INTRA.VDW>
0.325261

>  <SCORE.INTRA.VDW.0>
-1.60828

>  <SCORE.INTRA.norm>
0.0474063

>  <SCORE.RESTR>
0.901267

>  <SCORE.RESTR.CAVITY>
0.901267

>  <SCORE.RESTR.norm>
0.0450634

>  <SCORE.SYSTEM>
-0.795125

>  <SCORE.SYSTEM.CONST>
0

>  <SCORE.SYSTEM.DIHEDRAL>
3.26254

>  <SCORE.SYSTEM.POLAR>
-0.332215

>  <SCORE.SYSTEM.VDW>
-1.29686

>  <SCORE.SYSTEM.norm>
-0.0397563

>  <SCORE.heavy>
20

>  <SCORE.norm>
-0.82525

$$$$

  rDOCK(R)          3D
libRbt.so/2013.1/901 2013/11/27
 25 26  0  0  0  0  0  0  0  0999 V2000
   -2.1115    2.1599   17.9130 C   0  0  0  0  0  0
   -2.9026    2.5525   16.8166 O   0  0  0  0  0  0
   -2.6501    2.6612   19.2242 C   0  0  0  0  0  0
   -2.2696    1.5514   20.2068 C   0  0  0  0  0  0
   -1.2074    2.0146   21.1298 N   0  0  0  0  0  0
   -1.5306    2.4270   22.3978 C   0  0  0  0  0  0
   -0.5511    2.8870   23.2739 C   0  0  0  0  0  0
    0.7732    2.9122   22.8414 C   0  0  0  0  0  0
    1.7213    3.3365   23.6150 N   0  0  0  0  0  0
    1.0728    2.4777   21.5942 N   0  0  0  0  0  0
    0.1160    2.0238   20.7422 C   0  0  0  0  0  0
    0.5286    1.5673   19.4872 O   0  0  0  0  0  0
   -1.8566    0.4036   19.4847 O   0  0  0  0  0  0
   -2.0872    0.6487   18.1170 C   0  0  0  0  0  0
   -0.9979   -0.0356   17.2789 C   0  0  0  0  0  0
   -1.1371    0.2987   15.9125 O   0  0  0  0  0  0
    0.3996    0.4190   15.1758 P   0  0  0  0  0  0
    0.4463    1.6393   14.2828 O   0  0  0  0  0  0
    1.6238    0.5138   16.3435 O   0  0  0  0  0  0
    0.6565   -0.9592   14.2300 O   0  0  0  0  0  0
   -3.8560    2.5215   17.0920 H   0  0  0  0  0  0
    1.5417    3.6790   24.5863 H   0  0  0  0  0  0
    0.2692    2.0010   18.6121 H   0  0  0  0  0  0
    1.4212    1.3292   16.8681 H   0  0  0  0  0  0
   -0.1620   -1.0407   13.6785 H   0  0  0  0  0  0
  1  2  1  0  0  0
  1  3  1  0  0  0
  3  4  1  0  0  0
  4  5  1  0  0  0
  5  6  1  0  0  0
  6  7  2  0  0  0
  7  8  1  0  0  0
  8  9  2  0  0  0
  8 10  1  0  0  0
 10 11  2  0  0  0
 11 12  1  0  0  0
  4 13  1  0  0  0
 13 14  1  0  0  0
 14 15  1  0  0  0
 15 16  1  0  0  0
 16 17  1  0  0  0
 17 18  2  0  0  0
 17 19  1  0  0  0
 17 20  1  0  0  0
 14  1  1  0  0  0
 11  5  1  0  0  0
  2 21  1  0  0  0
  9 22  1  0  0  0
 12 23  1  0  0  0
 19 24  1  0  0  0
 20 25  1  0  0  0
M  END
>  <CHROM.0>
-62.08193742,96.99940223,-49.95601918,64.83442324,69.11620359,-163.68680560
-64.59620559,-63.17255376,-165.68440806,-172.45929294

>  <CHROM.1>
-37.32504760,100.00572252,64.64449721,-54.78738207,145.12329045,-136.58007141
-60.17059259,49.91614647,-0.52164418,1.46322565,18.61292803,1.55934673,0.08838611
-1.87285277

>  <RI>
4.38658e+07

>  <Rbt.Current_Directory>
/extra/banzai2/j5wagner/CELPP/2016_10_17_rdock_implementation/normal_run/tutorialVideo/tutorial_rdock_implementation/full_week_run/4-docking/5wrn/SMCSS_4g6w_docking

>  <Rbt.Executable>
rbdock ($Id: //depot/dev/client3/rdock/2013.1/src/exe/rbdock.cxx#4 $)

>  <Rbt.Library>
libRbt.so (2013.1, Build901 2013/11/27)

>  <Rbt.Parameter_File>
/home/j5wagner/env_00/source/rDock/rDock_2013.1_src//data/scripts/dock.prm

>  <Rbt.Receptor>
/extra/banzai2/j5wagner/CELPP/2016_10_17_rdock_implementation/normal_run/tutorialVideo/tutorial_rdock_implementation/full_week_run/4-docking/5wrn/SMCSS_4g6w_tech_prep/rDockGridGenInput.prm

>  <SCORE>
-15.6432

>  <SCORE.INTER>
-13.9487

>  <SCORE.INTER.CONST>
1

>  <SCORE.INTER.POLAR>
-4.4514

>  <SCORE.INTER.REPUL>
0.0474709

>  <SCORE.INTER.ROT>
4

>  <SCORE.INTER.VDW>
-8.45128

>  <SCORE.INTER.norm>
-0.697435

>  <SCORE.INTRA>
3.22086

>  <SCORE.INTRA.DIHEDRAL>
6.32558

>  <SCORE.INTRA.DIHEDRAL.0>
8.98184

>  <SCORE.INTRA.POLAR>
0

>  <SCORE.INTRA.POLAR.0>
0

>  <SCORE.INTRA.REPUL>
0

>  <SCORE.INTRA.REPUL.0>
0

>  <SCORE.INTRA.VDW>
0.0580708

>  <SCORE.INTRA.VDW.0>
-1.60828

>  <SCORE.INTRA.norm>
0.161043

>  <SCORE.RESTR>
1.1378

>  <SCORE.RESTR.CAVITY>
1.1378

>  <SCORE.RESTR.norm>
0.0568902

>  <SCORE.SYSTEM>
-6.05318

>  <SCORE.SYSTEM.CONST>
0

>  <SCORE.SYSTEM.DIHEDRAL>
6.62053

>  <SCORE.SYSTEM.POLAR>
-2.24445

>  <SCORE.SYSTEM.VDW>
-1.7323

>  <SCORE.SYSTEM.norm>
-0.302659

>  <SCORE.heavy>
20

>  <SCORE.norm>
-0.782161

$$$$

  rDOCK(R)          3D
libRbt.so/2013.1/901 2013/11/27
 25 26  0  0  0  0  0  0  0  0999 V2000
   -4.0784   -1.3263   15.0570 C   0  0  0  0  0  0
   -5.2825   -1.4377   14.3361 O   0  0  0  0  0  0
   -2.8970   -1.8616   14.2966 C   0  0  0  0  0  0
   -1.7478   -0.9605   14.7543 C   0  0  0  0  0  0
   -0.8028   -1.7154   15.6095 N   0  0  0  0  0  0
   -1.2749   -2.4826   16.6445 C   0  0  0  0  0  0
   -0.4030   -3.1824   17.4742 C   0  0  0  0  0  0
    0.9657   -3.0979   17.2280 C   0  0  0  0  0  0
    1.8192   -3.7245   17.9737 N   0  0  0  0  0  0
    1.4083   -2.3543   16.1861 N   0  0  0  0  0  0
    0.5554   -1.6761   15.3737 C   0  0  0  0  0  0
    1.1065   -0.9619   14.3061 O   0  0  0  0  0  0
   -2.2742    0.1631   15.4397 O   0  0  0  0  0  0
   -3.6772    0.1209   15.3231 C   0  0  0  0  0  0
   -4.3187    0.6783   16.6018 C   0  0  0  0  0  0
   -3.8851   -0.0483   17.7342 O   0  0  0  0  0  0
   -2.4527    0.6390   18.3623 P   0  0  0  0  0  0
   -1.3104   -0.3437   18.2281 O   0  0  0  0  0  0
   -2.0697    2.0795   17.5564 O   0  0  0  0  0  0
   -2.6890    0.9801   20.0019 O   0  0  0  0  0  0
   -5.1873   -0.9300   13.4881 H   0  0  0  0  0  0
    1.5276   -4.3131   18.7871 H   0  0  0  0  0  0
    0.6487   -0.1886   13.8441 H   0  0  0  0  0  0
   -1.9646    1.8258   16.6048 H   0  0  0  0  0  0
   -1.9577    1.6058   20.2354 H   0  0  0  0  0  0
  1  2  1  0  0  0
  1  3  1  0  0  0
  3  4  1  0  0  0
  4  5  1  0  0  0
  5  6  1  0  0  0
  6  7  2  0  0  0
  7  8  1  0  0  0
  8  9  2  0  0  0
  8 10  1  0  0  0
 10 11  2  0  0  0
 11 12  1  0  0  0
  4 13  1  0  0  0
 13 14  1  0  0  0
 14 15  1  0  0  0
 15 16  1  0  0  0
 16 17  1  0  0  0
 17 18  2  0  0  0
 17 19  1  0  0  0
 17 20  1  0  0  0
 14  1  1  0  0  0
 11  5  1  0  0  0
  2 21  1  0  0  0
  9 22  1  0  0  0
 12 23  1  0  0  0
 19 24  1  0  0  0
 20 25  1  0  0  0
M  END
>  <CHROM.0>
-178.82019617,79.19132020,-176.71025205,65.90455739,-175.58986371,5.32269660
-64.48124883,62.31940222,-173.75860317,175.30612155

>  <CHROM.1>
-59.36284142,-48.38187247,22.65020565,62.39864225,88.72129382,-115.30535692
-59.22070604,-163.54023440,-1.75771266,-0.84760063,16.56192882,2.81967852
-0.49156447,1.10158956

>  <RI>
4.38658e+07

>  <Rbt.Current_Directory>
/extra/banzai2/j5wagner/CELPP/2016_10_17_rdock_implementation/normal_run/tutorialVideo/tutorial_rdock_implementation/full_week_run/4-docking/5wrn/SMCSS_4g6w_docking

>  <Rbt.Executable>
rbdock ($Id: //depot/dev/client3/rdock/2013.1/src/exe/rbdock.cxx#4 $)

>  <Rbt.Library>
libRbt.so (2013.1, Build901 2013/11/27)

>  <Rbt.Parameter_File>
/home/j5wagner/env_00/source/rDock/rDock_2013.1_src//data/scripts/dock.prm

>  <Rbt.Receptor>
/extra/banzai2/j5wagner/CELPP/2016_10_17_rdock_implementation/normal_run/tutorialVideo/tutorial_rdock_implementation/full_week_run/4-docking/5wrn/SMCSS_4g6w_tech_prep/rDockGridGenInput.prm

>  <SCORE>
-12.8093

>  <SCORE.INTER>
-9.58301

>  <SCORE.INTER.CONST>
1

>  <SCORE.INTER.POLAR>
-2.09543

>  <SCORE.INTER.REPUL>
0.24455

>  <SCORE.INTER.ROT>
4

>  <SCORE.INTER.VDW>
-13.0813

>  <SCORE.INTER.norm>
-0.479151

>  <SCORE.INTRA>
-2.26562

>  <SCORE.INTRA.DIHEDRAL>
0.319108

>  <SCORE.INTRA.DIHEDRAL.0>
8.98184

>  <SCORE.INTRA.POLAR>
-0.748575

>  <SCORE.INTRA.POLAR.0>
0

>  <SCORE.INTRA.REPUL>
0

>  <SCORE.INTRA.REPUL.0>
0

>  <SCORE.INTRA.VDW>
0.119985

>  <SCORE.INTRA.VDW.0>
-1.60828

>  <SCORE.INTRA.norm>
-0.113281

>  <SCORE.RESTR>
0.030669

>  <SCORE.RESTR.CAVITY>
0.030669

>  <SCORE.RESTR.norm>
0.00153345

>  <SCORE.SYSTEM>
-0.991363

>  <SCORE.SYSTEM.CONST>
0

>  <SCORE.SYSTEM.DIHEDRAL>
2.20626

>  <SCORE.SYSTEM.POLAR>
-1.24895

>  <SCORE.SYSTEM.REPUL>
0.431615

>  <SCORE.SYSTEM.VDW>
-0.00612254

>  <SCORE.SYSTEM.norm>
-0.0495682

>  <SCORE.heavy>
20

>  <SCORE.norm>
-0.640466

$$$$
