
 OpenBabel12121609493D
libRbt.so/2013.1/901 2013/11/27
 28 30  0  0  0  0  0  0  0  0999 V2000
   38.5848   13.8767   85.2496 C   0  0  0  0  0  0  0  0  0  0  0  0
   39.6163   13.1250   84.5037 C   0  0  0  0  0  0  0  0  0  0  0  0
   39.4874   11.8747   84.4113 O   0  0  0  0  0  0  0  0  0  0  0  0
   40.7965   13.7716   83.8802 C   0  0  0  0  0  0  0  0  0  0  0  0
   41.3230   13.2654   82.6859 C   0  0  0  0  0  0  0  0  0  0  0  0
   42.4668   13.8338   82.0792 C   0  0  0  0  0  0  0  0  0  0  0  0
   43.0406   15.0032   82.6637 C   0  0  0  0  0  0  0  0  0  0  0  0
   42.5331   15.4564   83.9009 C   0  0  0  0  0  0  0  0  0  0  0  0
   41.4330   14.8497   84.4989 C   0  0  0  0  0  0  0  0  0  0  0  0
   44.2403   15.7332   82.0407 C   0  0  0  0  0  0  0  0  0  0  0  0
   43.9974   17.2630   82.0135 C   0  0  0  0  0  0  0  0  0  0  0  0
   45.5001   15.4472   82.8897 C   0  0  0  0  0  0  0  0  0  0  0  0
   44.4761   15.2909   80.5752 C   0  0  0  0  0  0  0  0  0  0  0  0
   44.3959   13.7784   80.4093 C   0  0  0  0  0  0  0  0  0  0  0  0
   42.9970   13.2212   80.7733 C   0  0  0  0  0  0  0  0  0  0  0  0
   43.1487   11.6852   80.9092 C   0  0  0  0  0  0  0  0  0  0  0  0
   41.9956   13.5209   79.6342 C   0  0  0  0  0  0  0  0  0  0  0  0
   38.5438   15.2171   85.2794 C   0  0  0  0  0  0  0  0  0  0  0  0
   37.5182   15.9974   86.0147 C   0  0  0  0  0  0  0  0  0  0  0  0
   36.4797   15.3897   86.7461 C   0  0  0  0  0  0  0  0  0  0  0  0
   35.5317   16.1698   87.4155 C   0  0  0  0  0  0  0  0  0  0  0  0
   35.5970   17.5729   87.3676 C   0  0  0  0  0  0  0  0  0  0  0  0
   34.5963   18.4132   88.0697 C   0  0  0  0  0  0  0  0  0  0  0  0
   33.6961   17.8666   88.7612 O   0  0  0  0  0  0  0  0  0  0  0  0
   34.6095   19.8045   87.9762 O   0  0  0  0  0  0  0  0  0  0  0  0
   36.6175   18.1774   86.6143 C   0  0  0  0  0  0  0  0  0  0  0  0
   37.5650   17.3981   85.9454 C   0  0  0  0  0  0  0  0  0  0  0  0
   35.2954   20.3080   87.4289 H   0  0  0  0  0  0  0  0  0  0  0  0
  1  2  1  0  0  0  0
  1 18  2  0  0  0  0
  2  3  2  0  0  0  0
  2  4  1  0  0  0  0
  4  5  2  0  0  0  0
  5  6  1  0  0  0  0
  6  7  2  0  0  0  0
  7  8  1  0  0  0  0
  7 10  1  0  0  0  0
  8  9  2  0  0  0  0
  9  4  1  0  0  0  0
 10 11  1  0  0  0  0
 10 12  1  0  0  0  0
 10 13  1  0  0  0  0
 13 14  1  0  0  0  0
 14 15  1  0  0  0  0
 15 16  1  0  0  0  0
 15 17  1  0  0  0  0
 15  6  1  0  0  0  0
 18 19  1  0  0  0  0
 19 20  2  0  0  0  0
 20 21  1  0  0  0  0
 21 22  2  0  0  0  0
 22 23  1  0  0  0  0
 22 26  1  0  0  0  0
 23 24  2  0  0  0  0
 23 25  1  0  0  0  0
 25 28  1  0  0  0  0
 26 27  2  0  0  0  0
 27 19  1  0  0  0  0
M  END
