
     RDKit          3D

 53 55  0  0  0  0  0  0  0  0999 V2000
    2.4553    1.0123   -1.5863 C   0  0  0  0  0  0  0  0  0  0  0  0
    1.0424    1.2090   -1.9740 C   0  0  0  0  0  0  0  0  0  0  0  0
    0.8007    1.6397   -3.1336 O   0  0  0  0  0  0  0  0  0  0  0  0
   -0.0931    0.9408   -1.0583 C   0  0  0  0  0  0  0  0  0  0  0  0
   -1.2934    0.4266   -1.5629 C   0  0  0  0  0  0  0  0  0  0  0  0
   -2.4089    0.1895   -0.7268 C   0  0  0  0  0  0  0  0  0  0  0  0
   -2.2686    0.4053    0.6775 C   0  0  0  0  0  0  0  0  0  0  0  0
   -1.0722    0.9843    1.1540 C   0  0  0  0  0  0  0  0  0  0  0  0
   -0.0055    1.2494    0.3009 C   0  0  0  0  0  0  0  0  0  0  0  0
   -3.3997    0.1105    1.6745 C   0  0  0  0  0  0  0  0  0  0  0  0
   -2.8597   -0.6639    2.9029 C   0  0  0  0  0  0  0  0  0  0  0  0
   -4.0048    1.4478    2.1594 C   0  0  0  0  0  0  0  0  0  0  0  0
   -4.5025   -0.7715    1.0383 C   0  0  0  0  0  0  0  0  0  0  0  0
   -4.8869   -0.2967   -0.3576 C   0  0  0  0  0  0  0  0  0  0  0  0
   -3.6990   -0.3671   -1.3495 C   0  0  0  0  0  0  0  0  0  0  0  0
   -4.1074    0.4577   -2.5959 C   0  0  0  0  0  0  0  0  0  0  0  0
   -3.4575   -1.8315   -1.7823 C   0  0  0  0  0  0  0  0  0  0  0  0
    2.8352    0.1224   -0.6573 C   0  0  0  0  0  0  0  0  0  0  0  0
    4.2451   -0.0998   -0.2520 C   0  0  0  0  0  0  0  0  0  0  0  0
    5.3358    0.2396   -1.0753 C   0  0  0  0  0  0  0  0  0  0  0  0
    6.6469    0.0020   -0.6510 C   0  0  0  0  0  0  0  0  0  0  0  0
    6.8986   -0.5821    0.6023 C   0  0  0  0  0  0  0  0  0  0  0  0
    8.2839   -0.8434    1.0640 C   0  0  0  0  0  0  0  0  0  0  0  0
    8.4933   -1.7122    1.9521 O   0  0  0  0  0  0  0  0  0  0  0  0
    9.3740   -0.1400    0.5526 O   0  0  0  0  0  0  0  0  0  0  0  0
    5.8083   -0.9458    1.4105 C   0  0  0  0  0  0  0  0  0  0  0  0
    4.4981   -0.7083    0.9868 C   0  0  0  0  0  0  0  0  0  0  0  0
    3.1917    1.5959   -2.1204 H   0  0  0  0  0  0  0  0  0  0  0  0
   -1.3459    0.1945   -2.6175 H   0  0  0  0  0  0  0  0  0  0  0  0
   -0.9554    1.2445    2.1964 H   0  0  0  0  0  0  0  0  0  0  0  0
    0.8910    1.7017    0.7068 H   0  0  0  0  0  0  0  0  0  0  0  0
   -2.2887   -1.5603    2.5770 H   0  0  0  0  0  0  0  0  0  0  0  0
   -2.1976   -0.0380    3.5358 H   0  0  0  0  0  0  0  0  0  0  0  0
   -3.6977   -1.0014    3.5512 H   0  0  0  0  0  0  0  0  0  0  0  0
   -3.2554    2.0369    2.7302 H   0  0  0  0  0  0  0  0  0  0  0  0
   -4.8751    1.2695    2.8271 H   0  0  0  0  0  0  0  0  0  0  0  0
   -4.3362    2.0729    1.3043 H   0  0  0  0  0  0  0  0  0  0  0  0
   -4.1683   -1.8297    0.9801 H   0  0  0  0  0  0  0  0  0  0  0  0
   -5.4123   -0.7705    1.6790 H   0  0  0  0  0  0  0  0  0  0  0  0
   -5.2763    0.7420   -0.2908 H   0  0  0  0  0  0  0  0  0  0  0  0
   -5.7324   -0.9190   -0.7261 H   0  0  0  0  0  0  0  0  0  0  0  0
   -3.4073    0.3129   -3.4440 H   0  0  0  0  0  0  0  0  0  0  0  0
   -4.1422    1.5414   -2.3503 H   0  0  0  0  0  0  0  0  0  0  0  0
   -5.1134    0.1497   -2.9556 H   0  0  0  0  0  0  0  0  0  0  0  0
   -3.0897   -2.4458   -0.9343 H   0  0  0  0  0  0  0  0  0  0  0  0
   -4.3925   -2.2884   -2.1722 H   0  0  0  0  0  0  0  0  0  0  0  0
   -2.6935   -1.8853   -2.5870 H   0  0  0  0  0  0  0  0  0  0  0  0
    2.0780   -0.4601   -0.1466 H   0  0  0  0  0  0  0  0  0  0  0  0
    5.1883    0.6599   -2.0600 H   0  0  0  0  0  0  0  0  0  0  0  0
    7.4561    0.2494   -1.3243 H   0  0  0  0  0  0  0  0  0  0  0  0
    9.2703    0.6391   -0.0844 H   0  0  0  0  0  0  0  0  0  0  0  0
    5.9681   -1.4062    2.3777 H   0  0  0  0  0  0  0  0  0  0  0  0
    3.6779   -0.9928    1.6351 H   0  0  0  0  0  0  0  0  0  0  0  0
  1  2  1  0
  2  3  2  0
  2  4  1  0
  4  5  2  0
  5  6  1  0
  6  7  2  0
  7  8  1  0
  8  9  2  0
  7 10  1  0
 10 11  1  0
 10 12  1  0
 10 13  1  0
 13 14  1  0
 14 15  1  0
 15 16  1  0
 15 17  1  0
  1 18  2  0
 18 19  1  0
 19 20  2  0
 20 21  1  0
 21 22  2  0
 22 23  1  0
 23 24  2  0
 23 25  1  0
 22 26  1  0
 26 27  2  0
  9  4  1  0
 27 19  1  0
 15  6  1  0
  1 28  1  0
  5 29  1  0
  8 30  1  0
  9 31  1  0
 11 32  1  0
 11 33  1  0
 11 34  1  0
 12 35  1  0
 12 36  1  0
 12 37  1  0
 13 38  1  0
 13 39  1  0
 14 40  1  0
 14 41  1  0
 16 42  1  0
 16 43  1  0
 16 44  1  0
 17 45  1  0
 17 46  1  0
 17 47  1  0
 18 48  1  0
 20 49  1  0
 21 50  1  0
 25 51  1  0
 26 52  1  0
 27 53  1  0
M  END
$$$$
