
     RDKit          2D

 14 14  0  0  0  0  0  0  0  0999 V2000
   -2.2983    0.2682    0.0000 C   0  0  0  0  0  0  0  0  0  0  0  0
   -1.0345   -0.5398    0.0000 C   0  0  0  0  0  0  0  0  0  0  0  0
   -0.3631    0.8016    0.0000 C   0  0  0  0  0  0  0  0  0  0  0  0
    1.1201    0.5775    0.0000 C   0  0  0  0  0  0  0  0  0  0  0  0
    1.3653   -0.9024    0.0000 C   0  0  0  0  0  0  0  0  0  0  0  0
   -3.6300   -0.4223    0.0000 O   0  0  0  0  0  0  0  0  0  0  0  0
    0.0148    2.2532    0.0000 O   0  0  0  0  0  0  0  0  0  0  0  0
    2.6174    0.6666    0.0000 O   0  0  0  0  0  0  0  0  0  0  0  0
    1.9128   -2.2989    0.0000 O   0  0  0  0  0  0  0  0  0  0  0  0
    0.0337   -1.5928    0.0000 O   0  0  0  0  0  0  0  0  0  0  0  0
   -1.9702   -1.7122    0.0000 H   0  0  0  0  0  0  0  0  0  0  0  0
   -1.7672    1.3291    0.0000 H   0  0  0  0  0  0  0  0  0  0  0  0
    1.1879    2.0759    0.0000 H   0  0  0  0  0  0  0  0  0  0  0  0
    2.8114   -0.5038    0.0000 H   0  0  0  0  0  0  0  0  0  0  0  0
  2  1  1  6
  1  6  1  0
  2 11  1  0
  2  3  1  0
  2 10  1  0
  3 12  1  6
  3  4  1  0
  3  7  1  0
  4 13  1  6
  4  5  1  0
  4  8  1  0
  5 14  1  6
  5  9  1  0
  5 10  1  0
M  END
