
  rDOCK(R)          3D
libRbt.so/2013.1/901 2013/11/27
 36 40  0  0  0  0  0  0  0  0999 V2000
    9.4157  -30.8950   -3.3369 C   0  0  0  0  0  0
    9.5022  -30.3785   -4.7785 C   0  0  0  0  0  0
    9.6997  -29.7737   -2.3215 C   0  0  0  0  0  0
    8.5887  -28.7987   -2.2926 N   0  0  0  0  0  0
    8.9212  -27.6801   -1.3865 C   0  0  0  0  0  0
   10.1059  -26.8931   -1.9150 C   0  0  0  0  0  0
   11.3828  -26.8688   -1.2774 C   0  0  0  0  0  0
   11.6058  -27.6217    0.0143 C   0  0  0  0  0  0
   12.4600  -26.1572   -1.8826 C   0  0  0  0  0  0
   13.7543  -26.1384   -1.2549 N   0  0  0  0  0  0
   14.8953  -26.3900   -1.8290 C   0  0  0  0  0  0
   14.9341  -26.7966   -3.1655 O   0  0  0  0  0  0
   16.1425  -26.2937   -1.0311 C   0  0  0  0  0  0
   16.1287  -25.8733    0.3076 C   0  0  0  0  0  0
   17.2892  -25.7840    1.0072 N   0  0  0  0  0  0
   18.4801  -26.1077    0.4378 C   0  0  0  0  0  0
   19.7457  -25.9550    1.2134 C   0  0  0  0  0  0
   18.5210  -26.5192   -0.8555 N   0  0  0  0  0  0
   17.3866  -26.6226   -1.5944 C   0  0  0  0  0  0
   12.2206  -25.4166   -3.0565 C   0  0  0  0  0  0
   10.9846  -25.4525   -3.6037 N   0  0  0  0  0  0
   10.5202  -24.8473   -4.7049 C   0  0  0  0  0  0
    9.1920  -25.2078   -4.8374 C   0  0  0  0  0  0
    8.8314  -26.0313   -3.8245 N   0  0  0  0  0  0
    9.9616  -26.1509   -3.0942 C   0  0  0  0  0  0
    7.3409  -29.4683   -1.8678 C   0  0  0  0  0  0
    6.9572  -30.5458   -2.8819 C   0  0  0  0  0  0
    8.0844  -31.4683   -3.0765 N   0  0  0  0  0  0
    7.8962  -32.8868   -2.8931 C   0  0  0  0  0  0
    7.0555  -33.2968   -2.0452 O   0  0  0  0  0  0
    8.6384  -33.8999   -3.7437 C   0  0  0  0  0  0
    8.3048  -35.3361   -3.3302 C   0  0  0  0  0  0
    7.2640  -35.8550   -4.3235 C   0  0  0  0  0  0
    7.0831  -34.7816   -5.3925 C   0  0  0  0  0  0
    8.2246  -33.7950   -5.2086 C   0  0  0  0  0  0
   15.8007  -26.9532   -3.6629 H   0  0  0  0  0  0
  1  2  1  0  0  0
  1  3  1  0  0  0
  3  4  1  0  0  0
  4  5  1  0  0  0
  5  6  1  0  0  0
  6  7  2  0  0  0
  7  8  1  0  0  0
  7  9  1  0  0  0
  9 10  1  0  0  0
 10 11  2  0  0  0
 11 12  1  0  0  0
 11 13  1  0  0  0
 13 14  2  0  0  0
 14 15  1  0  0  0
 15 16  2  0  0  0
 16 17  1  0  0  0
 16 18  1  0  0  0
 18 19  2  0  0  0
  9 20  2  0  0  0
 20 21  1  0  0  0
 21 22  1  0  0  0
 22 23  2  0  0  0
 23 24  1  0  0  0
 24 25  2  0  0  0
  4 26  1  0  0  0
 26 27  1  0  0  0
 27 28  1  0  0  0
 28 29  1  0  0  0
 29 30  2  0  0  0
 29 31  1  0  0  0
 31 32  1  0  0  0
 32 33  1  0  0  0
 33 34  1  0  0  0
 34 35  1  0  0  0
 28  1  1  0  0  0
 35 31  1  0  0  0
 25  6  1  0  0  0
 19 13  1  0  0  0
 25 21  1  0  0  0
 12 36  1  0  0  0
M  END
>  <CHROM.0>
-154.16286870,58.01965672,11.99560866,179.49108770,-168.79682018

>  <CHROM.1>
64.88443174,-112.02285459,130.83961575,176.59104230,-3.25273494,178.18326342
11.32536310,-28.69674761,-2.40701862,-2.51418329,-0.36227802,-0.04305055

>  <RI>
0

>  <Rbt.Current_Directory>
/extra/banzai2/j5wagner/CELPP/2016_10_17_rdock_implementation/normal_run/tutorialVideo/tutorial_rdock_implementation/full_week_run/4-docking/5m96/SMCSS_4wlb_docking

>  <Rbt.Executable>
rbdock ($Id: //depot/dev/client3/rdock/2013.1/src/exe/rbdock.cxx#4 $)

>  <Rbt.Library>
libRbt.so (2013.1, Build901 2013/11/27)

>  <Rbt.Parameter_File>
/home/j5wagner/env_00/source/rDock/rDock_2013.1_src//data/scripts/dock.prm

>  <Rbt.Receptor>
/extra/banzai2/j5wagner/CELPP/2016_10_17_rdock_implementation/normal_run/tutorialVideo/tutorial_rdock_implementation/full_week_run/4-docking/5m96/SMCSS_4wlb_tech_prep/rDockGridGenInput.prm

>  <SCORE>
-34.1718

>  <SCORE.INTER>
-22.8621

>  <SCORE.INTER.CONST>
1

>  <SCORE.INTER.POLAR>
-1.52409

>  <SCORE.INTER.REPUL>
0

>  <SCORE.INTER.ROT>
5

>  <SCORE.INTER.VDW>
-28.0802

>  <SCORE.INTER.norm>
-0.653203

>  <SCORE.INTRA>
-1.99147

>  <SCORE.INTRA.DIHEDRAL>
-4.29346

>  <SCORE.INTRA.DIHEDRAL.0>
9.74364

>  <SCORE.INTRA.POLAR>
0

>  <SCORE.INTRA.POLAR.0>
0

>  <SCORE.INTRA.REPUL>
-0.0844441

>  <SCORE.INTRA.REPUL.0>
0.108387

>  <SCORE.INTRA.VDW>
0.577479

>  <SCORE.INTRA.VDW.0>
-2.87247

>  <SCORE.INTRA.norm>
-0.0568992

>  <SCORE.RESTR>
0

>  <SCORE.RESTR.CAVITY>
0

>  <SCORE.RESTR.norm>
0

>  <SCORE.SYSTEM>
-9.31821

>  <SCORE.SYSTEM.CONST>
0

>  <SCORE.SYSTEM.DIHEDRAL>
1.33003

>  <SCORE.SYSTEM.POLAR>
-2.68096

>  <SCORE.SYSTEM.VDW>
-0.867941

>  <SCORE.SYSTEM.norm>
-0.266235

>  <SCORE.heavy>
35

>  <SCORE.norm>
-0.976337

$$$$

  rDOCK(R)          3D
libRbt.so/2013.1/901 2013/11/27
 36 40  0  0  0  0  0  0  0  0999 V2000
    9.5432  -30.9027   -3.5112 C   0  0  0  0  0  0
    9.6830  -30.4154   -4.9588 C   0  0  0  0  0  0
    9.8225  -29.7690   -2.5084 C   0  0  0  0  0  0
    8.7332  -28.7696   -2.5300 N   0  0  0  0  0  0
    9.0642  -27.6417   -1.6350 C   0  0  0  0  0  0
   10.2470  -26.8575   -2.1719 C   0  0  0  0  0  0
   11.5190  -26.8101   -1.5260 C   0  0  0  0  0  0
   11.7381  -27.5334   -0.2168 C   0  0  0  0  0  0
   12.5954  -26.1037   -2.1387 C   0  0  0  0  0  0
   13.8850  -26.0619   -1.5024 N   0  0  0  0  0  0
   15.0009  -26.5259   -1.9864 C   0  0  0  0  0  0
   15.0070  -27.2093   -3.2054 O   0  0  0  0  0  0
   16.2499  -26.3684   -1.2012 C   0  0  0  0  0  0
   17.4874  -26.8139   -1.6904 C   0  0  0  0  0  0
   18.6108  -26.6659   -0.9418 N   0  0  0  0  0  0
   18.5673  -26.0779    0.2827 C   0  0  0  0  0  0
   19.8078  -25.9709    1.1052 C   0  0  0  0  0  0
   17.3829  -25.6362    0.7785 N   0  0  0  0  0  0
   16.2338  -25.7638    0.0667 C   0  0  0  0  0  0
   12.3592  -25.3903   -3.3299 C   0  0  0  0  0  0
   11.1274  -25.4471   -3.8850 N   0  0  0  0  0  0
   10.6666  -24.8690   -5.0021 C   0  0  0  0  0  0
    9.3420  -25.2420   -5.1363 C   0  0  0  0  0  0
    8.9801  -26.0462   -4.1084 N   0  0  0  0  0  0
   10.1058  -26.1418   -3.3678 C   0  0  0  0  0  0
    7.4590  -29.4036   -2.1301 C   0  0  0  0  0  0
    7.0809  -30.4914   -3.1353 C   0  0  0  0  0  0
    8.1923  -31.4418   -3.2798 N   0  0  0  0  0  0
    7.9672  -32.8522   -3.0763 C   0  0  0  0  0  0
    7.0933  -33.2277   -2.2463 O   0  0  0  0  0  0
    8.7109  -33.8971   -3.8862 C   0  0  0  0  0  0
    8.4470  -35.3110   -3.3608 C   0  0  0  0  0  0
    7.3866  -35.9331   -4.2706 C   0  0  0  0  0  0
    7.1237  -34.9442   -5.4023 C   0  0  0  0  0  0
    8.2349  -33.9093   -5.3357 C   0  0  0  0  0  0
   14.1667  -27.3684   -3.7454 H   0  0  0  0  0  0
  1  2  1  0  0  0
  1  3  1  0  0  0
  3  4  1  0  0  0
  4  5  1  0  0  0
  5  6  1  0  0  0
  6  7  2  0  0  0
  7  8  1  0  0  0
  7  9  1  0  0  0
  9 10  1  0  0  0
 10 11  2  0  0  0
 11 12  1  0  0  0
 11 13  1  0  0  0
 13 14  2  0  0  0
 14 15  1  0  0  0
 15 16  2  0  0  0
 16 17  1  0  0  0
 16 18  1  0  0  0
 18 19  2  0  0  0
  9 20  2  0  0  0
 20 21  1  0  0  0
 21 22  1  0  0  0
 22 23  2  0  0  0
 23 24  1  0  0  0
 24 25  2  0  0  0
  4 26  1  0  0  0
 26 27  1  0  0  0
 27 28  1  0  0  0
 28 29  1  0  0  0
 29 30  2  0  0  0
 29 31  1  0  0  0
 31 32  1  0  0  0
 32 33  1  0  0  0
 33 34  1  0  0  0
 34 35  1  0  0  0
 28  1  1  0  0  0
 35 31  1  0  0  0
 25  6  1  0  0  0
 19 13  1  0  0  0
 25 21  1  0  0  0
 12 36  1  0  0  0
M  END
>  <CHROM.0>
-154.81074313,58.35278786,4.49102478,63.80437428,-176.74780322

>  <CHROM.1>
67.14667134,-112.89447717,118.54905051,-0.13668477,-178.11269539,172.19619695
11.43350534,-28.71228642,-2.59399426,-2.52126275,-0.37633978,-0.06569255

>  <RI>
0

>  <Rbt.Current_Directory>
/extra/banzai2/j5wagner/CELPP/2016_10_17_rdock_implementation/normal_run/tutorialVideo/tutorial_rdock_implementation/full_week_run/4-docking/5m96/SMCSS_4wlb_docking

>  <Rbt.Executable>
rbdock ($Id: //depot/dev/client3/rdock/2013.1/src/exe/rbdock.cxx#4 $)

>  <Rbt.Library>
libRbt.so (2013.1, Build901 2013/11/27)

>  <Rbt.Parameter_File>
/home/j5wagner/env_00/source/rDock/rDock_2013.1_src//data/scripts/dock.prm

>  <Rbt.Receptor>
/extra/banzai2/j5wagner/CELPP/2016_10_17_rdock_implementation/normal_run/tutorialVideo/tutorial_rdock_implementation/full_week_run/4-docking/5m96/SMCSS_4wlb_tech_prep/rDockGridGenInput.prm

>  <SCORE>
-33.9487

>  <SCORE.INTER>
-22.8404

>  <SCORE.INTER.CONST>
1

>  <SCORE.INTER.POLAR>
-1.42309

>  <SCORE.INTER.REPUL>
0

>  <SCORE.INTER.ROT>
5

>  <SCORE.INTER.VDW>
-28.4019

>  <SCORE.INTER.norm>
-0.652583

>  <SCORE.INTRA>
-1.60589

>  <SCORE.INTRA.DIHEDRAL>
-2.90725

>  <SCORE.INTRA.DIHEDRAL.0>
9.74364

>  <SCORE.INTRA.POLAR>
0

>  <SCORE.INTRA.POLAR.0>
0

>  <SCORE.INTRA.REPUL>
-0.0778786

>  <SCORE.INTRA.REPUL.0>
0.108387

>  <SCORE.INTRA.VDW>
0.237125

>  <SCORE.INTRA.VDW.0>
-2.87247

>  <SCORE.INTRA.norm>
-0.0458827

>  <SCORE.RESTR>
0

>  <SCORE.RESTR.CAVITY>
0

>  <SCORE.RESTR.norm>
0

>  <SCORE.SYSTEM>
-9.50238

>  <SCORE.SYSTEM.CONST>
0

>  <SCORE.SYSTEM.DIHEDRAL>
1.01347

>  <SCORE.SYSTEM.POLAR>
-2.67523

>  <SCORE.SYSTEM.VDW>
-0.913344

>  <SCORE.SYSTEM.norm>
-0.271496

>  <SCORE.heavy>
35

>  <SCORE.norm>
-0.969962

$$$$

  rDOCK(R)          3D
libRbt.so/2013.1/901 2013/11/27
 36 40  0  0  0  0  0  0  0  0999 V2000
    9.4513  -30.8718   -3.3638 C   0  0  0  0  0  0
    9.4545  -30.3167   -4.7936 C   0  0  0  0  0  0
    9.7534  -29.7690   -2.3334 C   0  0  0  0  0  0
    8.6192  -28.8268   -2.2260 N   0  0  0  0  0  0
    8.9646  -27.7226   -1.3072 C   0  0  0  0  0  0
   10.1309  -26.9168   -1.8482 C   0  0  0  0  0  0
   11.4169  -26.8802   -1.2300 C   0  0  0  0  0  0
   11.6693  -27.6387    0.0530 C   0  0  0  0  0  0
   12.4755  -26.1508   -1.8466 C   0  0  0  0  0  0
   13.7789  -26.1194   -1.2385 N   0  0  0  0  0  0
   14.9112  -26.3847   -1.8236 C   0  0  0  0  0  0
   14.9301  -26.8207   -3.1513 O   0  0  0  0  0  0
   16.1701  -26.2720   -1.0464 C   0  0  0  0  0  0
   17.4099  -26.6281   -1.5988 C   0  0  0  0  0  0
   18.5428  -26.5248   -0.8569 N   0  0  0  0  0  0
   18.5062  -26.0674    0.4223 C   0  0  0  0  0  0
   19.7586  -26.0090    1.2315 C   0  0  0  0  0  0
   17.3196  -25.7142    0.9800 N   0  0  0  0  0  0
   16.1612  -25.8017    0.2772 C   0  0  0  0  0  0
   12.2088  -25.4055   -3.0116 C   0  0  0  0  0  0
   10.9651  -25.4538   -3.5402 N   0  0  0  0  0  0
   10.4762  -24.8473   -4.6300 C   0  0  0  0  0  0
    9.1508  -25.2240   -4.7448 C   0  0  0  0  0  0
    8.8164  -26.0588   -3.7322 N   0  0  0  0  0  0
    9.9590  -26.1687   -3.0200 C   0  0  0  0  0  0
    7.4118  -29.5418   -1.7606 C   0  0  0  0  0  0
    7.0090  -30.6037   -2.7838 C   0  0  0  0  0  0
    8.1500  -31.4888   -3.0560 N   0  0  0  0  0  0
    8.0092  -32.9163   -2.9018 C   0  0  0  0  0  0
    7.2216  -33.3711   -2.0263 O   0  0  0  0  0  0
    8.7367  -33.8862   -3.8133 C   0  0  0  0  0  0
    8.5243  -35.3384   -3.3764 C   0  0  0  0  0  0
    7.4369  -35.9207   -4.2808 C   0  0  0  0  0  0
    7.1047  -34.8629   -5.3289 C   0  0  0  0  0  0
    8.1972  -33.8101   -5.2384 C   0  0  0  0  0  0
   15.7892  -26.9838   -3.6594 H   0  0  0  0  0  0
  1  2  1  0  0  0
  1  3  1  0  0  0
  3  4  1  0  0  0
  4  5  1  0  0  0
  5  6  1  0  0  0
  6  7  2  0  0  0
  7  8  1  0  0  0
  7  9  1  0  0  0
  9 10  1  0  0  0
 10 11  2  0  0  0
 11 12  1  0  0  0
 11 13  1  0  0  0
 13 14  2  0  0  0
 14 15  1  0  0  0
 15 16  2  0  0  0
 16 17  1  0  0  0
 16 18  1  0  0  0
 18 19  2  0  0  0
  9 20  2  0  0  0
 20 21  1  0  0  0
 21 22  1  0  0  0
 22 23  2  0  0  0
 23 24  1  0  0  0
 24 25  2  0  0  0
  4 26  1  0  0  0
 26 27  1  0  0  0
 27 28  1  0  0  0
 28 29  1  0  0  0
 29 30  2  0  0  0
 29 31  1  0  0  0
 31 32  1  0  0  0
 32 33  1  0  0  0
 33 34  1  0  0  0
 34 35  1  0  0  0
 28  1  1  0  0  0
 35 31  1  0  0  0
 25  6  1  0  0  0
 19 13  1  0  0  0
 25 21  1  0  0  0
 12 36  1  0  0  0
M  END
>  <CHROM.0>
-156.59326014,58.92800848,-173.89860037,65.95122434,-176.66257159

>  <CHROM.1>
63.02017596,-112.89522100,129.01220057,176.21452390,175.82565947,175.06507161
11.36262742,-28.70763056,-2.38181531,-2.50152639,-0.35229368,-0.02467110

>  <RI>
0

>  <Rbt.Current_Directory>
/extra/banzai2/j5wagner/CELPP/2016_10_17_rdock_implementation/normal_run/tutorialVideo/tutorial_rdock_implementation/full_week_run/4-docking/5m96/SMCSS_4wlb_docking

>  <Rbt.Executable>
rbdock ($Id: //depot/dev/client3/rdock/2013.1/src/exe/rbdock.cxx#4 $)

>  <Rbt.Library>
libRbt.so (2013.1, Build901 2013/11/27)

>  <Rbt.Parameter_File>
/home/j5wagner/env_00/source/rDock/rDock_2013.1_src//data/scripts/dock.prm

>  <Rbt.Receptor>
/extra/banzai2/j5wagner/CELPP/2016_10_17_rdock_implementation/normal_run/tutorialVideo/tutorial_rdock_implementation/full_week_run/4-docking/5m96/SMCSS_4wlb_tech_prep/rDockGridGenInput.prm

>  <SCORE>
-33.8835

>  <SCORE.INTER>
-22.8538

>  <SCORE.INTER.CONST>
1

>  <SCORE.INTER.POLAR>
-1.52986

>  <SCORE.INTER.REPUL>
0

>  <SCORE.INTER.ROT>
5

>  <SCORE.INTER.VDW>
-28.0523

>  <SCORE.INTER.norm>
-0.652967

>  <SCORE.INTRA>
-1.82225

>  <SCORE.INTRA.DIHEDRAL>
-3.98943

>  <SCORE.INTRA.DIHEDRAL.0>
9.74364

>  <SCORE.INTRA.POLAR>
0

>  <SCORE.INTRA.POLAR.0>
0

>  <SCORE.INTRA.REPUL>
-0.0784388

>  <SCORE.INTRA.REPUL.0>
0.108387

>  <SCORE.INTRA.VDW>
0.564655

>  <SCORE.INTRA.VDW.0>
-2.87247

>  <SCORE.INTRA.norm>
-0.0520644

>  <SCORE.RESTR>
0

>  <SCORE.RESTR.CAVITY>
0

>  <SCORE.RESTR.norm>
0

>  <SCORE.SYSTEM>
-9.20742

>  <SCORE.SYSTEM.CONST>
0

>  <SCORE.SYSTEM.DIHEDRAL>
1.01942

>  <SCORE.SYSTEM.POLAR>
-2.66553

>  <SCORE.SYSTEM.VDW>
-0.654332

>  <SCORE.SYSTEM.norm>
-0.263069

>  <SCORE.heavy>
35

>  <SCORE.norm>
-0.9681

$$$$

  rDOCK(R)          3D
libRbt.so/2013.1/901 2013/11/27
 36 40  0  0  0  0  0  0  0  0999 V2000
    7.5439  -33.1877   -4.4883 C   0  0  0  0  0  0
    6.2967  -32.5348   -3.8792 C   0  0  0  0  0  0
    8.5768  -32.1307   -4.9183 C   0  0  0  0  0  0
    9.1950  -31.4908   -3.7376 N   0  0  0  0  0  0
   10.1100  -30.4134   -4.1675 C   0  0  0  0  0  0
   10.4500  -29.4998   -3.0048 C   0  0  0  0  0  0
   11.7860  -29.1584   -2.6361 C   0  0  0  0  0  0
   12.9590  -29.7412   -3.3906 C   0  0  0  0  0  0
   12.0103  -28.2365   -1.5717 C   0  0  0  0  0  0
   13.3528  -27.8754   -1.2018 N   0  0  0  0  0  0
   13.7117  -26.8203   -0.5288 C   0  0  0  0  0  0
   12.7601  -25.8649   -0.1614 O   0  0  0  0  0  0
   15.1466  -26.6210   -0.2086 C   0  0  0  0  0  0
   15.5614  -25.7069    0.7720 C   0  0  0  0  0  0
   16.8835  -25.5388    1.0331 N   0  0  0  0  0  0
   17.8282  -26.2530    0.3663 C   0  0  0  0  0  0
   19.2759  -26.0146    0.6382 C   0  0  0  0  0  0
   17.4534  -27.1455   -0.5860 N   0  0  0  0  0  0
   16.1436  -27.3462   -0.8818 C   0  0  0  0  0  0
   10.9086  -27.7457   -0.8442 C   0  0  0  0  0  0
    9.6654  -28.1233   -1.2191 N   0  0  0  0  0  0
    8.4777  -27.7901   -0.6966 C   0  0  0  0  0  0
    7.5096  -28.4355   -1.4435 C   0  0  0  0  0  0
    8.0909  -29.1669   -2.4239 N   0  0  0  0  0  0
    9.4115  -28.9454   -2.2455 C   0  0  0  0  0  0
    9.9129  -32.5026   -2.9335 C   0  0  0  0  0  0
    8.9260  -33.5440   -2.4060 C   0  0  0  0  0  0
    8.1609  -34.1138   -3.5237 N   0  0  0  0  0  0
    8.1286  -35.5423   -3.7224 C   0  0  0  0  0  0
    9.1317  -36.2368   -3.3980 O   0  0  0  0  0  0
    6.8900  -36.2398   -4.2516 C   0  0  0  0  0  0
    6.8059  -36.1589   -5.7785 C   0  0  0  0  0  0
    7.3090  -37.4965   -6.3234 C   0  0  0  0  0  0
    7.5624  -38.4073   -5.1259 C   0  0  0  0  0  0
    6.9184  -37.7304   -3.9271 C   0  0  0  0  0  0
   13.0043  -25.0091    0.3193 H   0  0  0  0  0  0
  1  2  1  0  0  0
  1  3  1  0  0  0
  3  4  1  0  0  0
  4  5  1  0  0  0
  5  6  1  0  0  0
  6  7  2  0  0  0
  7  8  1  0  0  0
  7  9  1  0  0  0
  9 10  1  0  0  0
 10 11  2  0  0  0
 11 12  1  0  0  0
 11 13  1  0  0  0
 13 14  2  0  0  0
 14 15  1  0  0  0
 15 16  2  0  0  0
 16 17  1  0  0  0
 16 18  1  0  0  0
 18 19  2  0  0  0
  9 20  2  0  0  0
 20 21  1  0  0  0
 21 22  1  0  0  0
 22 23  2  0  0  0
 23 24  1  0  0  0
 24 25  2  0  0  0
  4 26  1  0  0  0
 26 27  1  0  0  0
 27 28  1  0  0  0
 28 29  1  0  0  0
 29 30  2  0  0  0
 29 31  1  0  0  0
 31 32  1  0  0  0
 32 33  1  0  0  0
 33 34  1  0  0  0
 34 35  1  0  0  0
 28  1  1  0  0  0
 35 31  1  0  0  0
 25  6  1  0  0  0
 19 13  1  0  0  0
 25 21  1  0  0  0
 12 36  1  0  0  0
M  END
>  <CHROM.0>
-156.18005889,60.92918316,-167.67756364,65.48184703,-172.81157534

>  <CHROM.1>
164.10405254,128.28768886,160.33233589,-176.75139887,-164.10379987,82.32351124
10.85701607,-30.62289688,-2.38764232,2.25433078,0.13950655,-2.80710371

>  <RI>
0

>  <Rbt.Current_Directory>
/extra/banzai2/j5wagner/CELPP/2016_10_17_rdock_implementation/normal_run/tutorialVideo/tutorial_rdock_implementation/full_week_run/4-docking/5m96/SMCSS_4wlb_docking

>  <Rbt.Executable>
rbdock ($Id: //depot/dev/client3/rdock/2013.1/src/exe/rbdock.cxx#4 $)

>  <Rbt.Library>
libRbt.so (2013.1, Build901 2013/11/27)

>  <Rbt.Parameter_File>
/home/j5wagner/env_00/source/rDock/rDock_2013.1_src//data/scripts/dock.prm

>  <Rbt.Receptor>
/extra/banzai2/j5wagner/CELPP/2016_10_17_rdock_implementation/normal_run/tutorialVideo/tutorial_rdock_implementation/full_week_run/4-docking/5m96/SMCSS_4wlb_tech_prep/rDockGridGenInput.prm

>  <SCORE>
-31.6039

>  <SCORE.INTER>
-21.4249

>  <SCORE.INTER.CONST>
1

>  <SCORE.INTER.POLAR>
-0.8668

>  <SCORE.INTER.REPUL>
0

>  <SCORE.INTER.ROT>
5

>  <SCORE.INTER.VDW>
-28.8778

>  <SCORE.INTER.norm>
-0.61214

>  <SCORE.INTRA>
-1.01214

>  <SCORE.INTRA.DIHEDRAL>
-5.34717

>  <SCORE.INTRA.DIHEDRAL.0>
9.74364

>  <SCORE.INTRA.POLAR>
0

>  <SCORE.INTRA.POLAR.0>
0

>  <SCORE.INTRA.REPUL>
0.124232

>  <SCORE.INTRA.REPUL.0>
0.108387

>  <SCORE.INTRA.VDW>
1.04028

>  <SCORE.INTRA.VDW.0>
-2.87247

>  <SCORE.INTRA.norm>
-0.0289184

>  <SCORE.RESTR>
0

>  <SCORE.RESTR.CAVITY>
0

>  <SCORE.RESTR.norm>
0

>  <SCORE.SYSTEM>
-9.16683

>  <SCORE.SYSTEM.CONST>
0

>  <SCORE.SYSTEM.DIHEDRAL>
1.23497

>  <SCORE.SYSTEM.POLAR>
-2.64434

>  <SCORE.SYSTEM.VDW>
-0.793551

>  <SCORE.SYSTEM.norm>
-0.261909

>  <SCORE.heavy>
35

>  <SCORE.norm>
-0.902968

$$$$

  rDOCK(R)          3D
libRbt.so/2013.1/901 2013/11/27
 36 40  0  0  0  0  0  0  0  0999 V2000
    8.1874  -29.0747   -2.0128 C   0  0  0  0  0  0
    9.2988  -29.5638   -1.0758 C   0  0  0  0  0  0
    8.1785  -27.5392   -2.1188 C   0  0  0  0  0  0
    9.3555  -27.0588   -2.8736 N   0  0  0  0  0  0
    9.3826  -25.5817   -2.8814 C   0  0  0  0  0  0
   10.7576  -25.0705   -3.2689 C   0  0  0  0  0  0
   11.9224  -25.2569   -2.4652 C   0  0  0  0  0  0
   11.8254  -25.9629   -1.1321 C   0  0  0  0  0  0
   13.1877  -24.8031   -2.9408 C   0  0  0  0  0  0
   14.3696  -24.9988   -2.1443 N   0  0  0  0  0  0
   15.1949  -26.0028   -2.2199 C   0  0  0  0  0  0
   14.9285  -27.0668   -3.0860 O   0  0  0  0  0  0
   16.3866  -26.0267   -1.3364 C   0  0  0  0  0  0
   16.4372  -25.2803   -0.1492 C   0  0  0  0  0  0
   17.5478  -25.3142    0.6318 N   0  0  0  0  0  0
   18.6228  -26.0734    0.2927 C   0  0  0  0  0  0
   19.8488  -26.0556    1.1431 C   0  0  0  0  0  0
   18.5989  -26.8067   -0.8499 N   0  0  0  0  0  0
   17.5111  -26.8030   -1.6623 C   0  0  0  0  0  0
   13.2515  -24.0991   -4.1590 C   0  0  0  0  0  0
   12.1126  -23.9268   -4.8674 N   0  0  0  0  0  0
   11.9215  -23.3076   -6.0399 C   0  0  0  0  0  0
   10.5758  -23.4115   -6.3399 C   0  0  0  0  0  0
    9.9330  -24.0899   -5.3598 N   0  0  0  0  0  0
   10.9148  -24.3836   -4.4796 C   0  0  0  0  0  0
    9.3233  -27.5929   -4.2518 C   0  0  0  0  0  0
    9.4105  -29.1187   -4.2208 C   0  0  0  0  0  0
    8.3536  -29.6589   -3.3544 N   0  0  0  0  0  0
    7.4371  -30.6489   -3.8654 C   0  0  0  0  0  0
    7.1202  -30.6292   -5.0872 O   0  0  0  0  0  0
    6.8950  -31.7562   -2.9817 C   0  0  0  0  0  0
    5.9545  -32.6853   -3.7544 C   0  0  0  0  0  0
    6.7660  -33.9251   -4.1333 C   0  0  0  0  0  0
    8.1358  -33.7887   -3.4756 C   0  0  0  0  0  0
    8.0198  -32.6525   -2.4726 C   0  0  0  0  0  0
   14.1191  -27.0869   -3.6921 H   0  0  0  0  0  0
  1  2  1  0  0  0
  1  3  1  0  0  0
  3  4  1  0  0  0
  4  5  1  0  0  0
  5  6  1  0  0  0
  6  7  2  0  0  0
  7  8  1  0  0  0
  7  9  1  0  0  0
  9 10  1  0  0  0
 10 11  2  0  0  0
 11 12  1  0  0  0
 11 13  1  0  0  0
 13 14  2  0  0  0
 14 15  1  0  0  0
 15 16  2  0  0  0
 16 17  1  0  0  0
 16 18  1  0  0  0
 18 19  2  0  0  0
  9 20  2  0  0  0
 20 21  1  0  0  0
 21 22  1  0  0  0
 22 23  2  0  0  0
 23 24  1  0  0  0
 24 25  2  0  0  0
  4 26  1  0  0  0
 26 27  1  0  0  0
 27 28  1  0  0  0
 28 29  1  0  0  0
 29 30  2  0  0  0
 29 31  1  0  0  0
 31 32  1  0  0  0
 32 33  1  0  0  0
 33 34  1  0  0  0
 34 35  1  0  0  0
 28  1  1  0  0  0
 35 31  1  0  0  0
 25  6  1  0  0  0
 19 13  1  0  0  0
 25 21  1  0  0  0
 12 36  1  0  0  0
M  END
>  <CHROM.0>
-155.55319332,60.09399489,-173.31871845,65.36479097,-178.56166209

>  <CHROM.1>
162.95375095,-66.22431037,93.21849861,1.74341257,21.55142835,-179.47040616
11.60557439,-27.38586335,-2.82736736,-2.74851851,-0.44553196,-0.40125628

>  <RI>
0

>  <Rbt.Current_Directory>
/extra/banzai2/j5wagner/CELPP/2016_10_17_rdock_implementation/normal_run/tutorialVideo/tutorial_rdock_implementation/full_week_run/4-docking/5m96/SMCSS_4wlb_docking

>  <Rbt.Executable>
rbdock ($Id: //depot/dev/client3/rdock/2013.1/src/exe/rbdock.cxx#4 $)

>  <Rbt.Library>
libRbt.so (2013.1, Build901 2013/11/27)

>  <Rbt.Parameter_File>
/home/j5wagner/env_00/source/rDock/rDock_2013.1_src//data/scripts/dock.prm

>  <Rbt.Receptor>
/extra/banzai2/j5wagner/CELPP/2016_10_17_rdock_implementation/normal_run/tutorialVideo/tutorial_rdock_implementation/full_week_run/4-docking/5m96/SMCSS_4wlb_tech_prep/rDockGridGenInput.prm

>  <SCORE>
-31.4102

>  <SCORE.INTER>
-21.7758

>  <SCORE.INTER.CONST>
1

>  <SCORE.INTER.POLAR>
-1.19996

>  <SCORE.INTER.REPUL>
0

>  <SCORE.INTER.ROT>
5

>  <SCORE.INTER.VDW>
-28.096

>  <SCORE.INTER.norm>
-0.622167

>  <SCORE.INTRA>
-0.413677

>  <SCORE.INTRA.DIHEDRAL>
0.298181

>  <SCORE.INTRA.DIHEDRAL.0>
9.74364

>  <SCORE.INTRA.POLAR>
0

>  <SCORE.INTRA.POLAR.0>
0

>  <SCORE.INTRA.REPUL>
-0.108387

>  <SCORE.INTRA.REPUL.0>
0.108387

>  <SCORE.INTRA.VDW>
-0.0208317

>  <SCORE.INTRA.VDW.0>
-2.87247

>  <SCORE.INTRA.norm>
-0.0118194

>  <SCORE.RESTR>
0

>  <SCORE.RESTR.CAVITY>
0

>  <SCORE.RESTR.norm>
0

>  <SCORE.SYSTEM>
-9.22068

>  <SCORE.SYSTEM.CONST>
0

>  <SCORE.SYSTEM.DIHEDRAL>
1.04207

>  <SCORE.SYSTEM.POLAR>
-2.65764

>  <SCORE.SYSTEM.VDW>
-0.705741

>  <SCORE.SYSTEM.norm>
-0.263448

>  <SCORE.heavy>
35

>  <SCORE.norm>
-0.897434

$$$$

  rDOCK(R)          3D
libRbt.so/2013.1/901 2013/11/27
 36 40  0  0  0  0  0  0  0  0999 V2000
    9.2819  -31.2041   -3.8680 C   0  0  0  0  0  0
    9.4731  -30.7092   -5.3072 C   0  0  0  0  0  0
    9.4569  -30.0598   -2.8536 C   0  0  0  0  0  0
    8.3251  -29.1117   -2.9322 N   0  0  0  0  0  0
    8.5573  -27.9708   -2.0228 C   0  0  0  0  0  0
    9.6858  -27.0952   -2.5348 C   0  0  0  0  0  0
   10.9916  -27.0766   -1.9587 C   0  0  0  0  0  0
   11.3055  -27.9295   -0.7508 C   0  0  0  0  0  0
   12.0115  -26.2736   -2.5486 C   0  0  0  0  0  0
   13.3344  -26.2589   -1.9836 N   0  0  0  0  0  0
   13.7133  -25.6109   -0.9199 C   0  0  0  0  0  0
   12.8177  -24.7693   -0.2545 O   0  0  0  0  0  0
   15.1186  -25.7351   -0.4603 C   0  0  0  0  0  0
   15.5144  -25.3131    0.8181 C   0  0  0  0  0  0
   16.8112  -25.4292    1.2044 N   0  0  0  0  0  0
   17.7466  -25.9627    0.3752 C   0  0  0  0  0  0
   19.1735  -26.0348    0.8060 C   0  0  0  0  0  0
   17.3895  -26.3806   -0.8664 N   0  0  0  0  0  0
   16.1054  -26.2833   -1.2963 C   0  0  0  0  0  0
   11.6877  -25.4438   -3.6396 C   0  0  0  0  0  0
   10.4276  -25.4802   -4.1288 N   0  0  0  0  0  0
    9.8874  -24.8002   -5.1488 C   0  0  0  0  0  0
    8.5675  -25.1994   -5.2499 C   0  0  0  0  0  0
    8.2874  -26.1211   -4.2981 N   0  0  0  0  0  0
    9.4564  -26.2596   -3.6355 C   0  0  0  0  0  0
    7.0627  -29.8045   -2.5973 C   0  0  0  0  0  0
    6.7873  -30.9074   -3.6193 C   0  0  0  0  0  0
    7.9474  -31.8052   -3.7054 N   0  0  0  0  0  0
    7.7776  -33.2247   -3.5120 C   0  0  0  0  0  0
    6.8806  -33.6412   -2.7273 O   0  0  0  0  0  0
    8.6093  -34.2332   -4.2814 C   0  0  0  0  0  0
    8.5939  -35.6083   -3.6078 C   0  0  0  0  0  0
    7.5763  -36.4633   -4.3646 C   0  0  0  0  0  0
    7.0926  -35.6431   -5.5566 C   0  0  0  0  0  0
    8.0409  -34.4616   -5.6787 C   0  0  0  0  0  0
   13.0881  -24.2036    0.5391 H   0  0  0  0  0  0
  1  2  1  0  0  0
  1  3  1  0  0  0
  3  4  1  0  0  0
  4  5  1  0  0  0
  5  6  1  0  0  0
  6  7  2  0  0  0
  7  8  1  0  0  0
  7  9  1  0  0  0
  9 10  1  0  0  0
 10 11  2  0  0  0
 11 12  1  0  0  0
 11 13  1  0  0  0
 13 14  2  0  0  0
 14 15  1  0  0  0
 15 16  2  0  0  0
 16 17  1  0  0  0
 16 18  1  0  0  0
 18 19  2  0  0  0
  9 20  2  0  0  0
 20 21  1  0  0  0
 21 22  1  0  0  0
 22 23  2  0  0  0
 23 24  1  0  0  0
 24 25  2  0  0  0
  4 26  1  0  0  0
 26 27  1  0  0  0
 27 28  1  0  0  0
 28 29  1  0  0  0
 29 30  2  0  0  0
 29 31  1  0  0  0
 31 32  1  0  0  0
 32 33  1  0  0  0
 33 34  1  0  0  0
 34 35  1  0  0  0
 28  1  1  0  0  0
 35 31  1  0  0  0
 25  6  1  0  0  0
 19 13  1  0  0  0
 25 21  1  0  0  0
 12 36  1  0  0  0
M  END
>  <CHROM.0>
-154.40479853,57.46472583,6.39820784,178.86291596,-175.41407316

>  <CHROM.1>
69.83921554,-105.36155818,-77.81350551,-176.00790767,-165.73614973,161.36500518
10.86437497,-28.75658205,-2.65518657,-2.41868417,-0.46982529,-0.03260921

>  <RI>
0

>  <Rbt.Current_Directory>
/extra/banzai2/j5wagner/CELPP/2016_10_17_rdock_implementation/normal_run/tutorialVideo/tutorial_rdock_implementation/full_week_run/4-docking/5m96/SMCSS_4wlb_docking

>  <Rbt.Executable>
rbdock ($Id: //depot/dev/client3/rdock/2013.1/src/exe/rbdock.cxx#4 $)

>  <Rbt.Library>
libRbt.so (2013.1, Build901 2013/11/27)

>  <Rbt.Parameter_File>
/home/j5wagner/env_00/source/rDock/rDock_2013.1_src//data/scripts/dock.prm

>  <Rbt.Receptor>
/extra/banzai2/j5wagner/CELPP/2016_10_17_rdock_implementation/normal_run/tutorialVideo/tutorial_rdock_implementation/full_week_run/4-docking/5m96/SMCSS_4wlb_tech_prep/rDockGridGenInput.prm

>  <SCORE>
-31.0486

>  <SCORE.INTER>
-21.183

>  <SCORE.INTER.CONST>
1

>  <SCORE.INTER.POLAR>
-0.8668

>  <SCORE.INTER.REPUL>
0

>  <SCORE.INTER.ROT>
5

>  <SCORE.INTER.VDW>
-28.6359

>  <SCORE.INTER.norm>
-0.605229

>  <SCORE.INTRA>
-0.496587

>  <SCORE.INTRA.DIHEDRAL>
-0.122272

>  <SCORE.INTRA.DIHEDRAL.0>
9.74364

>  <SCORE.INTRA.POLAR>
0

>  <SCORE.INTRA.POLAR.0>
0

>  <SCORE.INTRA.REPUL>
-0.108387

>  <SCORE.INTRA.REPUL.0>
0.108387

>  <SCORE.INTRA.VDW>
0.106486

>  <SCORE.INTRA.VDW.0>
-2.87247

>  <SCORE.INTRA.norm>
-0.0141882

>  <SCORE.RESTR>
0

>  <SCORE.RESTR.CAVITY>
0

>  <SCORE.RESTR.norm>
0

>  <SCORE.SYSTEM>
-9.369

>  <SCORE.SYSTEM.CONST>
0

>  <SCORE.SYSTEM.DIHEDRAL>
1.03693

>  <SCORE.SYSTEM.POLAR>
-2.68771

>  <SCORE.SYSTEM.VDW>
-0.749258

>  <SCORE.SYSTEM.norm>
-0.267686

>  <SCORE.heavy>
35

>  <SCORE.norm>
-0.887103

$$$$

  rDOCK(R)          3D
libRbt.so/2013.1/901 2013/11/27
 36 40  0  0  0  0  0  0  0  0999 V2000
    9.5138  -30.8773   -3.4578 C   0  0  0  0  0  0
    9.6792  -30.4039   -4.9073 C   0  0  0  0  0  0
    9.8027  -29.7411   -2.4604 C   0  0  0  0  0  0
    8.7326  -28.7219   -2.5021 N   0  0  0  0  0  0
    9.0743  -27.5934   -1.6119 C   0  0  0  0  0  0
   10.2575  -26.8162   -2.1578 C   0  0  0  0  0  0
   11.5323  -26.7697   -1.5174 C   0  0  0  0  0  0
   11.7543  -27.4868   -0.2053 C   0  0  0  0  0  0
   12.6086  -26.0703   -2.1383 C   0  0  0  0  0  0
   13.9009  -26.0295   -1.5076 N   0  0  0  0  0  0
   15.0029  -26.5462   -1.9695 C   0  0  0  0  0  0
   14.9874  -27.2905   -3.1523 O   0  0  0  0  0  0
   16.2582  -26.3813   -1.1959 C   0  0  0  0  0  0
   17.4929  -26.8242   -1.6942 C   0  0  0  0  0  0
   18.6223  -26.6695   -0.9559 N   0  0  0  0  0  0
   18.5873  -26.0770    0.2667 C   0  0  0  0  0  0
   19.8345  -25.9625    1.0779 C   0  0  0  0  0  0
   17.4057  -25.6376    0.7712 N   0  0  0  0  0  0
   16.2509  -25.7719    0.0698 C   0  0  0  0  0  0
   12.3699  -25.3624   -3.3323 C   0  0  0  0  0  0
   11.1357  -25.4179   -3.8820 N   0  0  0  0  0  0
   10.6722  -24.8442   -5.0004 C   0  0  0  0  0  0
    9.3458  -25.2134   -5.1271 C   0  0  0  0  0  0
    8.9854  -26.0109   -4.0935 N   0  0  0  0  0  0
   10.1138  -26.1064   -3.3570 C   0  0  0  0  0  0
    7.4422  -29.3291   -2.1121 C   0  0  0  0  0  0
    7.0555  -30.4175   -3.1135 C   0  0  0  0  0  0
    8.1506  -31.3894   -3.2379 N   0  0  0  0  0  0
    7.8970  -32.7937   -3.0264 C   0  0  0  0  0  0
    7.0068  -33.1465   -2.2036 O   0  0  0  0  0  0
    8.6303  -33.8585   -3.8196 C   0  0  0  0  0  0
    8.2667  -35.2676   -3.3431 C   0  0  0  0  0  0
    7.2278  -35.8147   -4.3232 C   0  0  0  0  0  0
    7.0779  -34.7899   -5.4435 C   0  0  0  0  0  0
    8.2347  -33.8156   -5.2926 C   0  0  0  0  0  0
   14.1470  -27.4304   -3.6974 H   0  0  0  0  0  0
  1  2  1  0  0  0
  1  3  1  0  0  0
  3  4  1  0  0  0
  4  5  1  0  0  0
  5  6  1  0  0  0
  6  7  2  0  0  0
  7  8  1  0  0  0
  7  9  1  0  0  0
  9 10  1  0  0  0
 10 11  2  0  0  0
 11 12  1  0  0  0
 11 13  1  0  0  0
 13 14  2  0  0  0
 14 15  1  0  0  0
 15 16  2  0  0  0
 16 17  1  0  0  0
 16 18  1  0  0  0
 18 19  2  0  0  0
  9 20  2  0  0  0
 20 21  1  0  0  0
 21 22  1  0  0  0
 22 23  2  0  0  0
 23 24  1  0  0  0
 24 25  2  0  0  0
  4 26  1  0  0  0
 26 27  1  0  0  0
 27 28  1  0  0  0
 28 29  1  0  0  0
 29 30  2  0  0  0
 29 31  1  0  0  0
 31 32  1  0  0  0
 32 33  1  0  0  0
 33 34  1  0  0  0
 34 35  1  0  0  0
 28  1  1  0  0  0
 35 31  1  0  0  0
 25  6  1  0  0  0
 19 13  1  0  0  0
 25 21  1  0  0  0
 12 36  1  0  0  0
M  END
>  <CHROM.0>
25.30200355,58.25522817,-171.73498722,62.55961716,-175.97796863

>  <CHROM.1>
68.45785255,-113.10534226,115.64374201,1.86527542,-174.91546453,175.73956926
11.41715427,-28.67801485,-2.57967165,-2.53166433,-0.37289339,-0.06949303

>  <RI>
0

>  <Rbt.Current_Directory>
/extra/banzai2/j5wagner/CELPP/2016_10_17_rdock_implementation/normal_run/tutorialVideo/tutorial_rdock_implementation/full_week_run/4-docking/5m96/SMCSS_4wlb_docking

>  <Rbt.Executable>
rbdock ($Id: //depot/dev/client3/rdock/2013.1/src/exe/rbdock.cxx#4 $)

>  <Rbt.Library>
libRbt.so (2013.1, Build901 2013/11/27)

>  <Rbt.Parameter_File>
/home/j5wagner/env_00/source/rDock/rDock_2013.1_src//data/scripts/dock.prm

>  <Rbt.Receptor>
/extra/banzai2/j5wagner/CELPP/2016_10_17_rdock_implementation/normal_run/tutorialVideo/tutorial_rdock_implementation/full_week_run/4-docking/5m96/SMCSS_4wlb_tech_prep/rDockGridGenInput.prm

>  <SCORE>
-30.8224

>  <SCORE.INTER>
-22.8235

>  <SCORE.INTER.CONST>
1

>  <SCORE.INTER.POLAR>
-1.45355

>  <SCORE.INTER.REPUL>
0

>  <SCORE.INTER.ROT>
5

>  <SCORE.INTER.VDW>
-28.2814

>  <SCORE.INTER.norm>
-0.6521

>  <SCORE.INTRA>
-1.50736

>  <SCORE.INTRA.DIHEDRAL>
-2.65818

>  <SCORE.INTRA.DIHEDRAL.0>
9.74364

>  <SCORE.INTRA.POLAR>
0

>  <SCORE.INTRA.POLAR.0>
0

>  <SCORE.INTRA.REPUL>
-0.0762217

>  <SCORE.INTRA.REPUL.0>
0.108387

>  <SCORE.INTRA.VDW>
0.202833

>  <SCORE.INTRA.VDW.0>
-2.87247

>  <SCORE.INTRA.norm>
-0.0430676

>  <SCORE.RESTR>
0

>  <SCORE.RESTR.CAVITY>
0

>  <SCORE.RESTR.norm>
0

>  <SCORE.SYSTEM>
-6.4915

>  <SCORE.SYSTEM.CONST>
0

>  <SCORE.SYSTEM.DIHEDRAL>
1.05706

>  <SCORE.SYSTEM.POLAR>
-1.91866

>  <SCORE.SYSTEM.VDW>
-0.496596

>  <SCORE.SYSTEM.norm>
-0.185471

>  <SCORE.heavy>
35

>  <SCORE.norm>
-0.880639

$$$$

  rDOCK(R)          3D
libRbt.so/2013.1/901 2013/11/27
 36 40  0  0  0  0  0  0  0  0999 V2000
    9.2296  -31.0708   -3.8774 C   0  0  0  0  0  0
    9.0979  -30.5650   -5.3194 C   0  0  0  0  0  0
    9.4702  -29.9099   -2.8957 C   0  0  0  0  0  0
    8.2514  -29.0860   -2.7491 N   0  0  0  0  0  0
    8.5288  -27.9229   -1.8814 C   0  0  0  0  0  0
    9.6675  -27.0919   -2.4426 C   0  0  0  0  0  0
   10.9788  -27.0702   -1.8789 C   0  0  0  0  0  0
   11.2890  -27.8725   -0.6359 C   0  0  0  0  0  0
   12.0070  -26.3134   -2.5137 C   0  0  0  0  0  0
   13.3352  -26.2964   -1.9611 N   0  0  0  0  0  0
   13.7216  -25.6527   -0.8976 C   0  0  0  0  0  0
   12.8290  -24.8181   -0.2193 O   0  0  0  0  0  0
   15.1316  -25.7737   -0.4520 C   0  0  0  0  0  0
   15.5333  -25.3788    0.8332 C   0  0  0  0  0  0
   16.8343  -25.4911    1.2065 N   0  0  0  0  0  0
   17.7684  -25.9948    0.3574 C   0  0  0  0  0  0
   19.1992  -26.0628    0.7752 C   0  0  0  0  0  0
   17.4056  -26.3861   -0.8912 N   0  0  0  0  0  0
   16.1171  -26.2914   -1.3087 C   0  0  0  0  0  0
   11.6875  -25.5286   -3.6388 C   0  0  0  0  0  0
   10.4225  -25.5650   -4.1152 N   0  0  0  0  0  0
    9.8849  -24.9228   -5.1607 C   0  0  0  0  0  0
    8.5573  -25.3026   -5.2322 C   0  0  0  0  0  0
    8.2700  -26.1747   -4.2367 N   0  0  0  0  0  0
    9.4426  -26.3035   -3.5784 C   0  0  0  0  0  0
    7.1519  -29.9056   -2.1968 C   0  0  0  0  0  0
    6.8075  -31.0359   -3.1666 C   0  0  0  0  0  0
    8.0182  -31.8077   -3.4796 N   0  0  0  0  0  0
    8.0355  -33.2363   -3.2795 C   0  0  0  0  0  0
    7.3479  -33.7408   -2.3487 O   0  0  0  0  0  0
    8.8099  -34.1555   -4.2046 C   0  0  0  0  0  0
    8.9200  -35.5710   -3.6309 C   0  0  0  0  0  0
    7.8542  -36.4179   -4.3281 C   0  0  0  0  0  0
    7.2095  -35.5434   -5.3992 C   0  0  0  0  0  0
    8.0952  -34.3166   -5.5430 C   0  0  0  0  0  0
   13.1093  -24.2408    0.5625 H   0  0  0  0  0  0
  1  2  1  0  0  0
  1  3  1  0  0  0
  3  4  1  0  0  0
  4  5  1  0  0  0
  5  6  1  0  0  0
  6  7  2  0  0  0
  7  8  1  0  0  0
  7  9  1  0  0  0
  9 10  1  0  0  0
 10 11  2  0  0  0
 11 12  1  0  0  0
 11 13  1  0  0  0
 13 14  2  0  0  0
 14 15  1  0  0  0
 15 16  2  0  0  0
 16 17  1  0  0  0
 16 18  1  0  0  0
 18 19  2  0  0  0
  9 20  2  0  0  0
 20 21  1  0  0  0
 21 22  1  0  0  0
 22 23  2  0  0  0
 23 24  1  0  0  0
 24 25  2  0  0  0
  4 26  1  0  0  0
 26 27  1  0  0  0
 27 28  1  0  0  0
 28 29  1  0  0  0
 29 30  2  0  0  0
 29 31  1  0  0  0
 31 32  1  0  0  0
 32 33  1  0  0  0
 33 34  1  0  0  0
 34 35  1  0  0  0
 28  1  1  0  0  0
 35 31  1  0  0  0
 25  6  1  0  0  0
 19 13  1  0  0  0
 25 21  1  0  0  0
 12 36  1  0  0  0
M  END
>  <CHROM.0>
-153.48828614,59.43801754,-164.67340199,66.32455150,-170.42943093

>  <CHROM.1>
57.53379995,-106.43409538,-74.63001334,-174.67071839,-164.59388061,168.07162607
10.90591928,-28.76368926,-2.57260539,-2.41720741,-0.46203306,-0.03272349

>  <RI>
0

>  <Rbt.Current_Directory>
/extra/banzai2/j5wagner/CELPP/2016_10_17_rdock_implementation/normal_run/tutorialVideo/tutorial_rdock_implementation/full_week_run/4-docking/5m96/SMCSS_4wlb_docking

>  <Rbt.Executable>
rbdock ($Id: //depot/dev/client3/rdock/2013.1/src/exe/rbdock.cxx#4 $)

>  <Rbt.Library>
libRbt.so (2013.1, Build901 2013/11/27)

>  <Rbt.Parameter_File>
/home/j5wagner/env_00/source/rDock/rDock_2013.1_src//data/scripts/dock.prm

>  <Rbt.Receptor>
/extra/banzai2/j5wagner/CELPP/2016_10_17_rdock_implementation/normal_run/tutorialVideo/tutorial_rdock_implementation/full_week_run/4-docking/5m96/SMCSS_4wlb_tech_prep/rDockGridGenInput.prm

>  <SCORE>
-30.7147

>  <SCORE.INTER>
-21.3042

>  <SCORE.INTER.CONST>
1

>  <SCORE.INTER.POLAR>
-0.8668

>  <SCORE.INTER.REPUL>
0.00189707

>  <SCORE.INTER.ROT>
5

>  <SCORE.INTER.VDW>
-28.7666

>  <SCORE.INTER.norm>
-0.608692

>  <SCORE.INTRA>
-0.289337

>  <SCORE.INTRA.DIHEDRAL>
-0.722392

>  <SCORE.INTRA.DIHEDRAL.0>
9.74364

>  <SCORE.INTRA.POLAR>
0

>  <SCORE.INTRA.POLAR.0>
0

>  <SCORE.INTRA.REPUL>
-0.108387

>  <SCORE.INTRA.REPUL.0>
0.108387

>  <SCORE.INTRA.VDW>
0.613796

>  <SCORE.INTRA.VDW.0>
-2.87247

>  <SCORE.INTRA.norm>
-0.00826676

>  <SCORE.RESTR>
0

>  <SCORE.RESTR.CAVITY>
0

>  <SCORE.RESTR.norm>
0

>  <SCORE.SYSTEM>
-9.12118

>  <SCORE.SYSTEM.CONST>
0

>  <SCORE.SYSTEM.DIHEDRAL>
1.62636

>  <SCORE.SYSTEM.POLAR>
-2.67079

>  <SCORE.SYSTEM.VDW>
-0.853679

>  <SCORE.SYSTEM.norm>
-0.260605

>  <SCORE.heavy>
35

>  <SCORE.norm>
-0.877564

$$$$

  rDOCK(R)          3D
libRbt.so/2013.1/901 2013/11/27
 36 40  0  0  0  0  0  0  0  0999 V2000
    8.5771  -29.1588   -1.3562 C   0  0  0  0  0  0
    9.9408  -29.1185   -0.6553 C   0  0  0  0  0  0
    8.1462  -27.7577   -1.8256 C   0  0  0  0  0  0
    8.9825  -27.3035   -2.9569 N   0  0  0  0  0  0
    8.6203  -25.9206   -3.3301 C   0  0  0  0  0  0
    9.8635  -25.0781   -3.5462 C   0  0  0  0  0  0
   11.1041  -25.3202   -2.8829 C   0  0  0  0  0  0
   11.2256  -26.4411   -1.8760 C   0  0  0  0  0  0
   12.2410  -24.5201   -3.1992 C   0  0  0  0  0  0
   13.4993  -24.7654   -2.5464 N   0  0  0  0  0  0
   13.7346  -24.6887   -1.2683 C   0  0  0  0  0  0
   12.7317  -24.2604   -0.3943 O   0  0  0  0  0  0
   15.0929  -25.0071   -0.7632 C   0  0  0  0  0  0
   16.1475  -25.3186   -1.6349 C   0  0  0  0  0  0
   17.3765  -25.6175   -1.1403 N   0  0  0  0  0  0
   17.6166  -25.6110    0.1974 C   0  0  0  0  0  0
   18.9631  -25.9899    0.7171 C   0  0  0  0  0  0
   16.6139  -25.3111    1.0625 N   0  0  0  0  0  0
   15.3689  -25.0071    0.6141 C   0  0  0  0  0  0
   12.0964  -23.4457   -4.0985 C   0  0  0  0  0  0
   10.8912  -23.2444   -4.6779 N   0  0  0  0  0  0
   10.5125  -22.3082   -5.5581 C   0  0  0  0  0  0
    9.1795  -22.5363   -5.8458 C   0  0  0  0  0  0
    8.7309  -23.6069   -5.1481 N   0  0  0  0  0  0
    9.8140  -24.0059   -4.4464 C   0  0  0  0  0  0
    8.8182  -28.2197   -4.1055 C   0  0  0  0  0  0
    9.3058  -29.6188   -3.7291 C   0  0  0  0  0  0
    8.6207  -30.0721   -2.5107 N   0  0  0  0  0  0
    7.9124  -31.3289   -2.5059 C   0  0  0  0  0  0
    7.3654  -31.7369   -3.5680 O   0  0  0  0  0  0
    7.8653  -32.2059   -1.2692 C   0  0  0  0  0  0
    7.2284  -31.4756   -0.0835 C   0  0  0  0  0  0
    5.7781  -31.9530    0.0063 C   0  0  0  0  0  0
    5.5982  -33.0542   -1.0341 C   0  0  0  0  0  0
    6.9931  -33.4361   -1.5016 C   0  0  0  0  0  0
   11.8110  -23.9881   -0.7125 H   0  0  0  0  0  0
  1  2  1  0  0  0
  1  3  1  0  0  0
  3  4  1  0  0  0
  4  5  1  0  0  0
  5  6  1  0  0  0
  6  7  2  0  0  0
  7  8  1  0  0  0
  7  9  1  0  0  0
  9 10  1  0  0  0
 10 11  2  0  0  0
 11 12  1  0  0  0
 11 13  1  0  0  0
 13 14  2  0  0  0
 14 15  1  0  0  0
 15 16  2  0  0  0
 16 17  1  0  0  0
 16 18  1  0  0  0
 18 19  2  0  0  0
  9 20  2  0  0  0
 20 21  1  0  0  0
 21 22  1  0  0  0
 22 23  2  0  0  0
 23 24  1  0  0  0
 24 25  2  0  0  0
  4 26  1  0  0  0
 26 27  1  0  0  0
 27 28  1  0  0  0
 28 29  1  0  0  0
 29 30  2  0  0  0
 29 31  1  0  0  0
 31 32  1  0  0  0
 32 33  1  0  0  0
 33 34  1  0  0  0
 34 35  1  0  0  0
 28  1  1  0  0  0
 35 31  1  0  0  0
 25  6  1  0  0  0
 19 13  1  0  0  0
 25 21  1  0  0  0
 12 36  1  0  0  0
M  END
>  <CHROM.0>
-154.92906314,60.54406896,-176.52350491,-62.43687911,-173.76500651

>  <CHROM.1>
135.05000242,-28.54274244,-60.96390361,-0.81655489,3.48216349,59.63553627
10.89095989,-27.05042167,-2.16927347,-2.58728912,-0.44992032,-0.53898469

>  <RI>
0

>  <Rbt.Current_Directory>
/extra/banzai2/j5wagner/CELPP/2016_10_17_rdock_implementation/normal_run/tutorialVideo/tutorial_rdock_implementation/full_week_run/4-docking/5m96/SMCSS_4wlb_docking

>  <Rbt.Executable>
rbdock ($Id: //depot/dev/client3/rdock/2013.1/src/exe/rbdock.cxx#4 $)

>  <Rbt.Library>
libRbt.so (2013.1, Build901 2013/11/27)

>  <Rbt.Parameter_File>
/home/j5wagner/env_00/source/rDock/rDock_2013.1_src//data/scripts/dock.prm

>  <Rbt.Receptor>
/extra/banzai2/j5wagner/CELPP/2016_10_17_rdock_implementation/normal_run/tutorialVideo/tutorial_rdock_implementation/full_week_run/4-docking/5m96/SMCSS_4wlb_tech_prep/rDockGridGenInput.prm

>  <SCORE>
-29.4592

>  <SCORE.INTER>
-24.0588

>  <SCORE.INTER.CONST>
1

>  <SCORE.INTER.POLAR>
-1.82597

>  <SCORE.INTER.REPUL>
0

>  <SCORE.INTER.ROT>
5

>  <SCORE.INTER.VDW>
-28.2505

>  <SCORE.INTER.norm>
-0.687394

>  <SCORE.INTRA>
3.7091

>  <SCORE.INTRA.DIHEDRAL>
-1.2409

>  <SCORE.INTRA.DIHEDRAL.0>
9.74364

>  <SCORE.INTRA.POLAR>
0

>  <SCORE.INTRA.POLAR.0>
0

>  <SCORE.INTRA.REPUL>
-0.108387

>  <SCORE.INTRA.REPUL.0>
0.108387

>  <SCORE.INTRA.VDW>
4.87148

>  <SCORE.INTRA.VDW.0>
-2.87247

>  <SCORE.INTRA.norm>
0.105974

>  <SCORE.RESTR>
0

>  <SCORE.RESTR.CAVITY>
0

>  <SCORE.RESTR.norm>
0

>  <SCORE.SYSTEM>
-9.10947

>  <SCORE.SYSTEM.CONST>
0

>  <SCORE.SYSTEM.DIHEDRAL>
0.984208

>  <SCORE.SYSTEM.POLAR>
-2.65113

>  <SCORE.SYSTEM.VDW>
-0.587737

>  <SCORE.SYSTEM.norm>
-0.260271

>  <SCORE.heavy>
35

>  <SCORE.norm>
-0.84169

$$$$

  rDOCK(R)          3D
libRbt.so/2013.1/901 2013/11/27
 36 40  0  0  0  0  0  0  0  0999 V2000
    7.4490  -32.8276   -4.9698 C   0  0  0  0  0  0
    6.2661  -32.4718   -4.0606 C   0  0  0  0  0  0
    8.3067  -31.5889   -5.2847 C   0  0  0  0  0  0
    9.0513  -31.1481   -4.0859 N   0  0  0  0  0  0
    9.7913  -29.9036   -4.3797 C   0  0  0  0  0  0
   10.1430  -29.1711   -3.0983 C   0  0  0  0  0  0
   11.4807  -28.8530   -2.7149 C   0  0  0  0  0  0
   12.6448  -29.2789   -3.5799 C   0  0  0  0  0  0
   11.7138  -28.1004   -1.5264 C   0  0  0  0  0  0
   13.0574  -27.7628   -1.1389 N   0  0  0  0  0  0
   13.4463  -26.6489   -0.5888 C   0  0  0  0  0  0
   12.5356  -25.6067   -0.3942 O   0  0  0  0  0  0
   14.8752  -26.4826   -0.2253 C   0  0  0  0  0  0
   15.2963  -25.4824    0.6643 C   0  0  0  0  0  0
   16.6134  -25.3486    0.9673 N   0  0  0  0  0  0
   17.5460  -26.1792    0.4312 C   0  0  0  0  0  0
   18.9917  -25.9804    0.7430 C   0  0  0  0  0  0
   17.1648  -27.1566   -0.4308 N   0  0  0  0  0  0
   15.8597  -27.3274   -0.7640 C   0  0  0  0  0  0
   10.6223  -27.7592   -0.7042 C   0  0  0  0  0  0
    9.3782  -28.1094   -1.1016 N   0  0  0  0  0  0
    8.1986  -27.8945   -0.5041 C   0  0  0  0  0  0
    7.2248  -28.4442   -1.3173 C   0  0  0  0  0  0
    7.7947  -28.9988   -2.4136 N   0  0  0  0  0  0
    9.1142  -28.7702   -2.2363 C   0  0  0  0  0  0
    9.9718  -32.2167   -3.6426 C   0  0  0  0  0  0
    9.1738  -33.4557   -3.2367 C   0  0  0  0  0  0
    8.2891  -33.8593   -4.3383 N   0  0  0  0  0  0
    8.3451  -35.2059   -4.8529 C   0  0  0  0  0  0
    9.4421  -35.8305   -4.8385 O   0  0  0  0  0  0
    7.1003  -35.9150   -5.3513 C   0  0  0  0  0  0
    7.4478  -37.2008   -6.1068 C   0  0  0  0  0  0
    7.2375  -38.3604   -5.1319 C   0  0  0  0  0  0
    6.6438  -37.7760   -3.8538 C   0  0  0  0  0  0
    6.2170  -36.3561   -4.1881 C   0  0  0  0  0  0
   11.5828  -25.6453   -0.7312 H   0  0  0  0  0  0
  1  2  1  0  0  0
  1  3  1  0  0  0
  3  4  1  0  0  0
  4  5  1  0  0  0
  5  6  1  0  0  0
  6  7  2  0  0  0
  7  8  1  0  0  0
  7  9  1  0  0  0
  9 10  1  0  0  0
 10 11  2  0  0  0
 11 12  1  0  0  0
 11 13  1  0  0  0
 13 14  2  0  0  0
 14 15  1  0  0  0
 15 16  2  0  0  0
 16 17  1  0  0  0
 16 18  1  0  0  0
 18 19  2  0  0  0
  9 20  2  0  0  0
 20 21  1  0  0  0
 21 22  1  0  0  0
 22 23  2  0  0  0
 23 24  1  0  0  0
 24 25  2  0  0  0
  4 26  1  0  0  0
 26 27  1  0  0  0
 27 28  1  0  0  0
 28 29  1  0  0  0
 29 30  2  0  0  0
 29 31  1  0  0  0
 31 32  1  0  0  0
 32 33  1  0  0  0
 33 34  1  0  0  0
 34 35  1  0  0  0
 28  1  1  0  0  0
 35 31  1  0  0  0
 25  6  1  0  0  0
 19 13  1  0  0  0
 25 21  1  0  0  0
 12 36  1  0  0  0
M  END
>  <CHROM.0>
-157.81798909,59.60025008,2.57424415,64.67167857,179.40248858

>  <CHROM.1>
159.71981174,121.54180626,142.86987850,-4.98260848,-163.23277747,168.20753766
10.67412841,-30.44367638,-2.55004125,2.23627895,0.13154992,-2.77102211

>  <RI>
0

>  <Rbt.Current_Directory>
/extra/banzai2/j5wagner/CELPP/2016_10_17_rdock_implementation/normal_run/tutorialVideo/tutorial_rdock_implementation/full_week_run/4-docking/5m96/SMCSS_4wlb_docking

>  <Rbt.Executable>
rbdock ($Id: //depot/dev/client3/rdock/2013.1/src/exe/rbdock.cxx#4 $)

>  <Rbt.Library>
libRbt.so (2013.1, Build901 2013/11/27)

>  <Rbt.Parameter_File>
/home/j5wagner/env_00/source/rDock/rDock_2013.1_src//data/scripts/dock.prm

>  <Rbt.Receptor>
/extra/banzai2/j5wagner/CELPP/2016_10_17_rdock_implementation/normal_run/tutorialVideo/tutorial_rdock_implementation/full_week_run/4-docking/5m96/SMCSS_4wlb_tech_prep/rDockGridGenInput.prm

>  <SCORE>
-29.247

>  <SCORE.INTER>
-19.3273

>  <SCORE.INTER.CONST>
1

>  <SCORE.INTER.POLAR>
-0.8668

>  <SCORE.INTER.REPUL>
0

>  <SCORE.INTER.ROT>
5

>  <SCORE.INTER.VDW>
-26.7802

>  <SCORE.INTER.norm>
-0.552209

>  <SCORE.INTRA>
-0.453332

>  <SCORE.INTRA.DIHEDRAL>
-3.35727

>  <SCORE.INTRA.DIHEDRAL.0>
9.74364

>  <SCORE.INTRA.POLAR>
0

>  <SCORE.INTRA.POLAR.0>
0

>  <SCORE.INTRA.REPUL>
0.0270844

>  <SCORE.INTRA.REPUL.0>
0.108387

>  <SCORE.INTRA.VDW>
1.08988

>  <SCORE.INTRA.VDW.0>
-2.87247

>  <SCORE.INTRA.norm>
-0.0129523

>  <SCORE.RESTR>
0

>  <SCORE.RESTR.CAVITY>
0

>  <SCORE.RESTR.norm>
0

>  <SCORE.SYSTEM>
-9.46631

>  <SCORE.SYSTEM.CONST>
0

>  <SCORE.SYSTEM.DIHEDRAL>
0.817139

>  <SCORE.SYSTEM.POLAR>
-2.63882

>  <SCORE.SYSTEM.VDW>
-0.902872

>  <SCORE.SYSTEM.norm>
-0.270466

>  <SCORE.heavy>
35

>  <SCORE.norm>
-0.835627

$$$$

  rDOCK(R)          3D
libRbt.so/2013.1/901 2013/11/27
 36 40  0  0  0  0  0  0  0  0999 V2000
    8.2112  -29.2500   -1.8042 C   0  0  0  0  0  0
    9.4837  -29.4376   -0.9687 C   0  0  0  0  0  0
    7.9102  -27.7591   -2.0406 C   0  0  0  0  0  0
    8.8954  -27.1663   -2.9701 N   0  0  0  0  0  0
    8.6505  -25.7160   -3.1088 C   0  0  0  0  0  0
    9.9475  -24.9736   -3.3710 C   0  0  0  0  0  0
   11.1470  -25.1982   -2.6305 C   0  0  0  0  0  0
   11.1666  -26.1921   -1.4917 C   0  0  0  0  0  0
   12.3392  -24.5045   -2.9915 C   0  0  0  0  0  0
   13.5565  -24.7345   -2.2602 N   0  0  0  0  0  0
   14.3197  -25.7861   -2.3411 C   0  0  0  0  0  0
   13.9419  -26.8676   -3.1415 O   0  0  0  0  0  0
   15.5617  -25.8417   -1.5313 C   0  0  0  0  0  0
   15.9398  -24.7835   -0.6908 C   0  0  0  0  0  0
   17.0892  -24.8602    0.0285 N   0  0  0  0  0  0
   17.8882  -25.9575   -0.0378 C   0  0  0  0  0  0
   19.1698  -25.9964    0.7255 C   0  0  0  0  0  0
   17.5443  -26.9963   -0.8419 N   0  0  0  0  0  0
   16.4053  -26.9638   -1.5802 C   0  0  0  0  0  0
   12.2899  -23.5423   -4.0189 C   0  0  0  0  0  0
   11.1203  -23.3496   -4.6697 N   0  0  0  0  0  0
   10.8287  -22.5096   -5.6716 C   0  0  0  0  0  0
    9.4960  -22.7000   -5.9870 C   0  0  0  0  0  0
    8.9611  -23.6517   -5.1856 N   0  0  0  0  0  0
    9.9930  -24.0187   -4.3949 C   0  0  0  0  0  0
    8.8201  -27.8418   -4.2830 C   0  0  0  0  0  0
    9.1881  -29.3176   -4.1310 C   0  0  0  0  0  0
    8.3428  -29.9364   -3.1004 N   0  0  0  0  0  0
    7.5756  -31.1182   -3.4100 C   0  0  0  0  0  0
    7.1365  -31.2837   -4.5820 O   0  0  0  0  0  0
    7.3393  -32.2017   -2.3752 C   0  0  0  0  0  0
    6.4002  -33.2903   -2.9025 C   0  0  0  0  0  0
    7.2799  -34.4595   -3.3478 C   0  0  0  0  0  0
    8.7164  -34.1179   -2.9639 C   0  0  0  0  0  0
    8.6386  -32.9224   -2.0284 C   0  0  0  0  0  0
   13.0896  -26.8714   -3.6860 H   0  0  0  0  0  0
  1  2  1  0  0  0
  1  3  1  0  0  0
  3  4  1  0  0  0
  4  5  1  0  0  0
  5  6  1  0  0  0
  6  7  2  0  0  0
  7  8  1  0  0  0
  7  9  1  0  0  0
  9 10  1  0  0  0
 10 11  2  0  0  0
 11 12  1  0  0  0
 11 13  1  0  0  0
 13 14  2  0  0  0
 14 15  1  0  0  0
 15 16  2  0  0  0
 16 17  1  0  0  0
 16 18  1  0  0  0
 18 19  2  0  0  0
  9 20  2  0  0  0
 20 21  1  0  0  0
 21 22  1  0  0  0
 22 23  2  0  0  0
 23 24  1  0  0  0
 24 25  2  0  0  0
  4 26  1  0  0  0
 26 27  1  0  0  0
 27 28  1  0  0  0
 28 29  1  0  0  0
 29 30  2  0  0  0
 29 31  1  0  0  0
 31 32  1  0  0  0
 32 33  1  0  0  0
 33 34  1  0  0  0
 34 35  1  0  0  0
 28  1  1  0  0  0
 35 31  1  0  0  0
 25  6  1  0  0  0
 19 13  1  0  0  0
 25 21  1  0  0  0
 12 36  1  0  0  0
M  END
>  <CHROM.0>
6.26445606,61.33883140,6.02712183,-61.84104231,-170.93018082

>  <CHROM.1>
148.99688959,-46.34262311,74.63257473,0.87819100,-0.62810068,175.07112193
11.14723608,-27.37222980,-2.74235889,-2.55305509,-0.41071646,-0.31126305

>  <RI>
0

>  <Rbt.Current_Directory>
/extra/banzai2/j5wagner/CELPP/2016_10_17_rdock_implementation/normal_run/tutorialVideo/tutorial_rdock_implementation/full_week_run/4-docking/5m96/SMCSS_4wlb_docking

>  <Rbt.Executable>
rbdock ($Id: //depot/dev/client3/rdock/2013.1/src/exe/rbdock.cxx#4 $)

>  <Rbt.Library>
libRbt.so (2013.1, Build901 2013/11/27)

>  <Rbt.Parameter_File>
/home/j5wagner/env_00/source/rDock/rDock_2013.1_src//data/scripts/dock.prm

>  <Rbt.Receptor>
/extra/banzai2/j5wagner/CELPP/2016_10_17_rdock_implementation/normal_run/tutorialVideo/tutorial_rdock_implementation/full_week_run/4-docking/5m96/SMCSS_4wlb_tech_prep/rDockGridGenInput.prm

>  <SCORE>
-28.6516

>  <SCORE.INTER>
-21.2424

>  <SCORE.INTER.CONST>
1

>  <SCORE.INTER.POLAR>
-1.32842

>  <SCORE.INTER.REPUL>
0

>  <SCORE.INTER.ROT>
5

>  <SCORE.INTER.VDW>
-27.1258

>  <SCORE.INTER.norm>
-0.606927

>  <SCORE.INTRA>
-0.591509

>  <SCORE.INTRA.DIHEDRAL>
-1.24555

>  <SCORE.INTRA.DIHEDRAL.0>
9.74364

>  <SCORE.INTRA.POLAR>
0

>  <SCORE.INTRA.POLAR.0>
0

>  <SCORE.INTRA.REPUL>
-0.108387

>  <SCORE.INTRA.REPUL.0>
0.108387

>  <SCORE.INTRA.VDW>
0.573204

>  <SCORE.INTRA.VDW.0>
-2.87247

>  <SCORE.INTRA.norm>
-0.0169003

>  <SCORE.RESTR>
0

>  <SCORE.RESTR.CAVITY>
0

>  <SCORE.RESTR.norm>
0

>  <SCORE.SYSTEM>
-6.81769

>  <SCORE.SYSTEM.CONST>
0

>  <SCORE.SYSTEM.DIHEDRAL>
0.26795

>  <SCORE.SYSTEM.POLAR>
-1.88596

>  <SCORE.SYSTEM.VDW>
-0.539403

>  <SCORE.SYSTEM.norm>
-0.194791

>  <SCORE.heavy>
35

>  <SCORE.norm>
-0.818618

$$$$

  rDOCK(R)          3D
libRbt.so/2013.1/901 2013/11/27
 36 40  0  0  0  0  0  0  0  0999 V2000
    7.6525  -33.0615   -4.1107 C   0  0  0  0  0  0
    6.4562  -32.3634   -3.4519 C   0  0  0  0  0  0
    8.8221  -32.0847   -4.3277 C   0  0  0  0  0  0
    9.4425  -31.7147   -3.0377 N   0  0  0  0  0  0
   10.4974  -30.7036   -3.2558 C   0  0  0  0  0  0
    9.9330  -29.3008   -3.1296 C   0  0  0  0  0  0
   10.4754  -28.1695   -3.8103 C   0  0  0  0  0  0
   11.6984  -28.3194   -4.6860 C   0  0  0  0  0  0
    9.8378  -26.9001   -3.6878 C   0  0  0  0  0  0
   10.3689  -25.7569   -4.3811 N   0  0  0  0  0  0
    9.6817  -24.8399   -4.9991 C   0  0  0  0  0  0
    8.2925  -24.9536   -5.1017 O   0  0  0  0  0  0
   10.3973  -23.7081   -5.6379 C   0  0  0  0  0  0
   11.7805  -23.5305   -5.4821 C   0  0  0  0  0  0
   12.4041  -22.4770   -6.0700 N   0  0  0  0  0  0
   11.7133  -21.5838   -6.8264 C   0  0  0  0  0  0
   12.4138  -20.4085   -7.4217 C   0  0  0  0  0  0
   10.3743  -21.7339   -6.9948 N   0  0  0  0  0  0
    9.7081  -22.7708   -6.4252 C   0  0  0  0  0  0
    8.7326  -26.7667   -2.8251 C   0  0  0  0  0  0
    8.2763  -27.8660   -2.1831 N   0  0  0  0  0  0
    7.2516  -27.9928   -1.3296 C   0  0  0  0  0  0
    7.1949  -29.3232   -0.9573 C   0  0  0  0  0  0
    8.1788  -30.0199   -1.5742 N   0  0  0  0  0  0
    8.8155  -29.0851   -2.3129 C   0  0  0  0  0  0
    9.9938  -32.9183   -2.3796 C   0  0  0  0  0  0
    8.8662  -33.9005   -2.0623 C   0  0  0  0  0  0
    8.1046  -34.1935   -3.2843 N   0  0  0  0  0  0
    7.9201  -35.5596   -3.7098 C   0  0  0  0  0  0
    8.8174  -36.4128   -3.4635 O   0  0  0  0  0  0
    6.6413  -36.0109   -4.3893 C   0  0  0  0  0  0
    6.5061  -35.4119   -5.7921 C   0  0  0  0  0  0
    6.9454  -36.4923   -6.7816 C   0  0  0  0  0  0
    7.2107  -37.7619   -5.9781 C   0  0  0  0  0  0
    6.6320  -37.5229   -4.5931 C   0  0  0  0  0  0
    7.7818  -25.7459   -4.7351 H   0  0  0  0  0  0
  1  2  1  0  0  0
  1  3  1  0  0  0
  3  4  1  0  0  0
  4  5  1  0  0  0
  5  6  1  0  0  0
  6  7  2  0  0  0
  7  8  1  0  0  0
  7  9  1  0  0  0
  9 10  1  0  0  0
 10 11  2  0  0  0
 11 12  1  0  0  0
 11 13  1  0  0  0
 13 14  2  0  0  0
 14 15  1  0  0  0
 15 16  2  0  0  0
 16 17  1  0  0  0
 16 18  1  0  0  0
 18 19  2  0  0  0
  9 20  2  0  0  0
 20 21  1  0  0  0
 21 22  1  0  0  0
 22 23  2  0  0  0
 23 24  1  0  0  0
 24 25  2  0  0  0
  4 26  1  0  0  0
 26 27  1  0  0  0
 27 28  1  0  0  0
 28 29  1  0  0  0
 29 30  2  0  0  0
 29 31  1  0  0  0
 31 32  1  0  0  0
 32 33  1  0  0  0
 33 34  1  0  0  0
 34 35  1  0  0  0
 28  1  1  0  0  0
 35 31  1  0  0  0
 25  6  1  0  0  0
 19 13  1  0  0  0
 25 21  1  0  0  0
 12 36  1  0  0  0
M  END
>  <CHROM.0>
-154.42397708,58.20958550,-5.70251401,63.99255168,-173.14786990

>  <CHROM.1>
91.71854243,-151.98337693,138.90852802,-1.91989956,-6.34534683,69.24252268
9.07054350,-29.54707065,-4.19810884,-2.55306012,1.26062366,0.83301286

>  <RI>
0

>  <Rbt.Current_Directory>
/extra/banzai2/j5wagner/CELPP/2016_10_17_rdock_implementation/normal_run/tutorialVideo/tutorial_rdock_implementation/full_week_run/4-docking/5m96/SMCSS_4wlb_docking

>  <Rbt.Executable>
rbdock ($Id: //depot/dev/client3/rdock/2013.1/src/exe/rbdock.cxx#4 $)

>  <Rbt.Library>
libRbt.so (2013.1, Build901 2013/11/27)

>  <Rbt.Parameter_File>
/home/j5wagner/env_00/source/rDock/rDock_2013.1_src//data/scripts/dock.prm

>  <Rbt.Receptor>
/extra/banzai2/j5wagner/CELPP/2016_10_17_rdock_implementation/normal_run/tutorialVideo/tutorial_rdock_implementation/full_week_run/4-docking/5m96/SMCSS_4wlb_tech_prep/rDockGridGenInput.prm

>  <SCORE>
-28.2471

>  <SCORE.INTER>
-20.1846

>  <SCORE.INTER.CONST>
1

>  <SCORE.INTER.POLAR>
-0.959166

>  <SCORE.INTER.REPUL>
0

>  <SCORE.INTER.ROT>
5

>  <SCORE.INTER.VDW>
-27.3234

>  <SCORE.INTER.norm>
-0.576702

>  <SCORE.INTRA>
1.42144

>  <SCORE.INTRA.DIHEDRAL>
-3.87208

>  <SCORE.INTRA.DIHEDRAL.0>
9.74364

>  <SCORE.INTRA.POLAR>
0

>  <SCORE.INTRA.POLAR.0>
0

>  <SCORE.INTRA.REPUL>
0.382105

>  <SCORE.INTRA.REPUL.0>
0.108387

>  <SCORE.INTRA.VDW>
1.44695

>  <SCORE.INTRA.VDW.0>
-2.87247

>  <SCORE.INTRA.norm>
0.0406124

>  <SCORE.RESTR>
0

>  <SCORE.RESTR.CAVITY>
0

>  <SCORE.RESTR.norm>
0

>  <SCORE.SYSTEM>
-9.48396

>  <SCORE.SYSTEM.CONST>
0

>  <SCORE.SYSTEM.DIHEDRAL>
1.13385

>  <SCORE.SYSTEM.POLAR>
-2.67988

>  <SCORE.SYSTEM.VDW>
-0.939285

>  <SCORE.SYSTEM.norm>
-0.27097

>  <SCORE.heavy>
35

>  <SCORE.norm>
-0.80706

$$$$

  rDOCK(R)          3D
libRbt.so/2013.1/901 2013/11/27
 36 40  0  0  0  0  0  0  0  0999 V2000
   10.3071  -30.4497   -3.3559 C   0  0  0  0  0  0
   11.6083  -30.3552   -4.1624 C   0  0  0  0  0  0
   10.0488  -29.1609   -2.5550 C   0  0  0  0  0  0
    9.6898  -28.0460   -3.4572 N   0  0  0  0  0  0
    9.5414  -26.7967   -2.6826 C   0  0  0  0  0  0
   10.7342  -25.8842   -2.8988 C   0  0  0  0  0  0
   11.9565  -26.0001   -2.1708 C   0  0  0  0  0  0
   12.1063  -27.0482   -1.0919 C   0  0  0  0  0  0
   13.0509  -25.1431   -2.4887 C   0  0  0  0  0  0
   14.2915  -25.2615   -1.7701 N   0  0  0  0  0  0
   15.1612  -26.2236   -1.8829 C   0  0  0  0  0  0
   14.8938  -27.3181   -2.7100 O   0  0  0  0  0  0
   16.4085  -26.1681   -1.0813 C   0  0  0  0  0  0
   16.4567  -25.5151    0.1599 C   0  0  0  0  0  0
   17.6172  -25.4716    0.8638 N   0  0  0  0  0  0
   18.7469  -26.0636    0.3943 C   0  0  0  0  0  0
   20.0208  -25.9599    1.1644 C   0  0  0  0  0  0
   18.7268  -26.7037   -0.8031 N   0  0  0  0  0  0
   17.5900  -26.7719   -1.5423 C   0  0  0  0  0  0
   12.8762  -24.1365   -3.4583 C   0  0  0  0  0  0
   11.6880  -24.0539   -4.0986 N   0  0  0  0  0  0
   11.2883  -23.2001   -5.0503 C   0  0  0  0  0  0
    9.9880  -23.5367   -5.3785 C   0  0  0  0  0  0
    9.5804  -24.5926   -4.6349 N   0  0  0  0  0  0
   10.6546  -24.8733   -3.8653 C   0  0  0  0  0  0
    8.4432  -28.3668   -4.1842 C   0  0  0  0  0  0
    8.6567  -29.5975   -5.0655 C   0  0  0  0  0  0
    9.1667  -30.7090   -4.2509 N   0  0  0  0  0  0
    8.4804  -31.9780   -4.2505 C   0  0  0  0  0  0
    7.2279  -32.0061   -4.4062 O   0  0  0  0  0  0
    9.2376  -33.2870   -4.1335 C   0  0  0  0  0  0
    9.8511  -33.4615   -2.7414 C   0  0  0  0  0  0
    8.9196  -34.3872   -1.9573 C   0  0  0  0  0  0
    7.8358  -34.8615   -2.9207 C   0  0  0  0  0  0
    8.3035  -34.4797   -4.3156 C   0  0  0  0  0  0
   15.5154  -28.1128   -2.7805 H   0  0  0  0  0  0
  1  2  1  0  0  0
  1  3  1  0  0  0
  3  4  1  0  0  0
  4  5  1  0  0  0
  5  6  1  0  0  0
  6  7  2  0  0  0
  7  8  1  0  0  0
  7  9  1  0  0  0
  9 10  1  0  0  0
 10 11  2  0  0  0
 11 12  1  0  0  0
 11 13  1  0  0  0
 13 14  2  0  0  0
 14 15  1  0  0  0
 15 16  2  0  0  0
 16 17  1  0  0  0
 16 18  1  0  0  0
 18 19  2  0  0  0
  9 20  2  0  0  0
 20 21  1  0  0  0
 21 22  1  0  0  0
 22 23  2  0  0  0
 23 24  1  0  0  0
 24 25  2  0  0  0
  4 26  1  0  0  0
 26 27  1  0  0  0
 27 28  1  0  0  0
 28 29  1  0  0  0
 29 30  2  0  0  0
 29 31  1  0  0  0
 31 32  1  0  0  0
 32 33  1  0  0  0
 33 34  1  0  0  0
 34 35  1  0  0  0
 28  1  1  0  0  0
 35 31  1  0  0  0
 25  6  1  0  0  0
 19 13  1  0  0  0
 25 21  1  0  0  0
 12 36  1  0  0  0
M  END
>  <CHROM.0>
-155.74006334,60.16762004,10.98469581,65.44136274,-176.56799450

>  <CHROM.1>
105.05352806,-83.89039417,72.48925432,-176.04234403,28.60673983,69.14574352
12.00292359,-28.01903259,-2.77217940,-2.55669889,-0.46869572,-0.18656502

>  <RI>
0

>  <Rbt.Current_Directory>
/extra/banzai2/j5wagner/CELPP/2016_10_17_rdock_implementation/normal_run/tutorialVideo/tutorial_rdock_implementation/full_week_run/4-docking/5m96/SMCSS_4wlb_docking

>  <Rbt.Executable>
rbdock ($Id: //depot/dev/client3/rdock/2013.1/src/exe/rbdock.cxx#4 $)

>  <Rbt.Library>
libRbt.so (2013.1, Build901 2013/11/27)

>  <Rbt.Parameter_File>
/home/j5wagner/env_00/source/rDock/rDock_2013.1_src//data/scripts/dock.prm

>  <Rbt.Receptor>
/extra/banzai2/j5wagner/CELPP/2016_10_17_rdock_implementation/normal_run/tutorialVideo/tutorial_rdock_implementation/full_week_run/4-docking/5m96/SMCSS_4wlb_tech_prep/rDockGridGenInput.prm

>  <SCORE>
-28.2429

>  <SCORE.INTER>
-20.1899

>  <SCORE.INTER.CONST>
1

>  <SCORE.INTER.POLAR>
-1.30812

>  <SCORE.INTER.REPUL>
0

>  <SCORE.INTER.ROT>
5

>  <SCORE.INTER.VDW>
-26.1423

>  <SCORE.INTER.norm>
-0.576854

>  <SCORE.INTRA>
1.41507

>  <SCORE.INTRA.DIHEDRAL>
2.64942

>  <SCORE.INTRA.DIHEDRAL.0>
9.74364

>  <SCORE.INTRA.POLAR>
0

>  <SCORE.INTRA.POLAR.0>
0

>  <SCORE.INTRA.REPUL>
-0.108387

>  <SCORE.INTRA.REPUL.0>
0.108387

>  <SCORE.INTRA.VDW>
0.632294

>  <SCORE.INTRA.VDW.0>
-2.87247

>  <SCORE.INTRA.norm>
0.0404305

>  <SCORE.RESTR>
0

>  <SCORE.RESTR.CAVITY>
0

>  <SCORE.RESTR.norm>
0

>  <SCORE.SYSTEM>
-9.46807

>  <SCORE.SYSTEM.CONST>
0

>  <SCORE.SYSTEM.DIHEDRAL>
1.15361

>  <SCORE.SYSTEM.POLAR>
-2.65586

>  <SCORE.SYSTEM.VDW>
-1.01494

>  <SCORE.SYSTEM.norm>
-0.270516

>  <SCORE.heavy>
35

>  <SCORE.norm>
-0.80694

$$$$

  rDOCK(R)          3D
libRbt.so/2013.1/901 2013/11/27
 36 40  0  0  0  0  0  0  0  0999 V2000
    7.8925  -32.0425   -4.5354 C   0  0  0  0  0  0
    6.7988  -31.1296   -3.9673 C   0  0  0  0  0  0
    8.9871  -31.2292   -5.2493 C   0  0  0  0  0  0
    9.7952  -30.4677   -4.2732 N   0  0  0  0  0  0
   10.7755  -29.6190   -4.9813 C   0  0  0  0  0  0
   11.1142  -28.3884   -4.1609 C   0  0  0  0  0  0
   12.3667  -28.2011   -3.5024 C   0  0  0  0  0  0
   13.4307  -29.2729   -3.5661 C   0  0  0  0  0  0
   12.6243  -26.9815   -2.8102 C   0  0  0  0  0  0
   13.8888  -26.7777   -2.1552 N   0  0  0  0  0  0
   14.0881  -26.6824   -0.8722 C   0  0  0  0  0  0
   13.0039  -26.6970    0.0096 O   0  0  0  0  0  0
   15.4715  -26.5023   -0.3671 C   0  0  0  0  0  0
   16.5856  -26.6377   -1.2095 C   0  0  0  0  0  0
   17.8398  -26.4786   -0.7137 N   0  0  0  0  0  0
   18.0452  -26.1755    0.5952 C   0  0  0  0  0  0
   19.4347  -26.0533    1.1252 C   0  0  0  0  0  0
   16.9843  -26.0369    1.4312 N   0  0  0  0  0  0
   15.7124  -26.1881    0.9806 C   0  0  0  0  0  0
   11.6025  -26.0168   -2.7143 C   0  0  0  0  0  0
   10.4251  -26.2574   -3.3344 N   0  0  0  0  0  0
    9.3208  -25.5013   -3.3933 C   0  0  0  0  0  0
    8.3956  -26.1917   -4.1542 C   0  0  0  0  0  0
    8.9201  -27.3707   -4.5653 N   0  0  0  0  0  0
   10.1636  -27.3668   -4.0376 C   0  0  0  0  0  0
   10.4750  -31.3976   -3.3465 C   0  0  0  0  0  0
    9.4381  -32.1837   -2.5443 C   0  0  0  0  0  0
    8.4994  -32.8459   -3.4607 N   0  0  0  0  0  0
    8.2848  -34.2696   -3.3696 C   0  0  0  0  0  0
    9.2315  -35.0173   -2.9976 O   0  0  0  0  0  0
    6.9262  -34.8844   -3.6470 C   0  0  0  0  0  0
    6.5060  -34.6892   -5.1065 C   0  0  0  0  0  0
    6.8075  -35.9996   -5.8355 C   0  0  0  0  0  0
    7.2776  -37.0035   -4.7872 C   0  0  0  0  0  0
    6.9530  -36.3948   -3.4329 C   0  0  0  0  0  0
   12.0488  -26.8124   -0.3026 H   0  0  0  0  0  0
  1  2  1  0  0  0
  1  3  1  0  0  0
  3  4  1  0  0  0
  4  5  1  0  0  0
  5  6  1  0  0  0
  6  7  2  0  0  0
  7  8  1  0  0  0
  7  9  1  0  0  0
  9 10  1  0  0  0
 10 11  2  0  0  0
 11 12  1  0  0  0
 11 13  1  0  0  0
 13 14  2  0  0  0
 14 15  1  0  0  0
 15 16  2  0  0  0
 16 17  1  0  0  0
 16 18  1  0  0  0
 18 19  2  0  0  0
  9 20  2  0  0  0
 20 21  1  0  0  0
 21 22  1  0  0  0
 22 23  2  0  0  0
 23 24  1  0  0  0
 24 25  2  0  0  0
  4 26  1  0  0  0
 26 27  1  0  0  0
 27 28  1  0  0  0
 28 29  1  0  0  0
 29 30  2  0  0  0
 29 31  1  0  0  0
 31 32  1  0  0  0
 32 33  1  0  0  0
 33 34  1  0  0  0
 34 35  1  0  0  0
 28  1  1  0  0  0
 35 31  1  0  0  0
 25  6  1  0  0  0
 19 13  1  0  0  0
 25 21  1  0  0  0
 12 36  1  0  0  0
M  END
>  <CHROM.0>
19.94115908,60.82630222,2.39755062,-63.11225536,-179.05651878

>  <CHROM.1>
151.95678345,107.98064592,-112.92343963,2.19007207,-9.99139624,64.83041418
11.22550989,-29.64158783,-2.82613634,2.48066984,0.51866809,3.03243586

>  <RI>
0

>  <Rbt.Current_Directory>
/extra/banzai2/j5wagner/CELPP/2016_10_17_rdock_implementation/normal_run/tutorialVideo/tutorial_rdock_implementation/full_week_run/4-docking/5m96/SMCSS_4wlb_docking

>  <Rbt.Executable>
rbdock ($Id: //depot/dev/client3/rdock/2013.1/src/exe/rbdock.cxx#4 $)

>  <Rbt.Library>
libRbt.so (2013.1, Build901 2013/11/27)

>  <Rbt.Parameter_File>
/home/j5wagner/env_00/source/rDock/rDock_2013.1_src//data/scripts/dock.prm

>  <Rbt.Receptor>
/extra/banzai2/j5wagner/CELPP/2016_10_17_rdock_implementation/normal_run/tutorialVideo/tutorial_rdock_implementation/full_week_run/4-docking/5m96/SMCSS_4wlb_tech_prep/rDockGridGenInput.prm

>  <SCORE>
-27.8673

>  <SCORE.INTER>
-20.4849

>  <SCORE.INTER.CONST>
1

>  <SCORE.INTER.POLAR>
-0.8668

>  <SCORE.INTER.REPUL>
0

>  <SCORE.INTER.ROT>
5

>  <SCORE.INTER.VDW>
-27.9378

>  <SCORE.INTER.norm>
-0.585283

>  <SCORE.INTRA>
-0.617777

>  <SCORE.INTRA.DIHEDRAL>
-1.8413

>  <SCORE.INTRA.DIHEDRAL.0>
9.74364

>  <SCORE.INTRA.POLAR>
0

>  <SCORE.INTRA.POLAR.0>
0

>  <SCORE.INTRA.REPUL>
-0.0980777

>  <SCORE.INTRA.REPUL.0>
0.108387

>  <SCORE.INTRA.VDW>
0.793262

>  <SCORE.INTRA.VDW.0>
-2.87247

>  <SCORE.INTRA.norm>
-0.0176508

>  <SCORE.RESTR>
0

>  <SCORE.RESTR.CAVITY>
0

>  <SCORE.RESTR.norm>
0

>  <SCORE.SYSTEM>
-6.76461

>  <SCORE.SYSTEM.CONST>
0

>  <SCORE.SYSTEM.DIHEDRAL>
0.634604

>  <SCORE.SYSTEM.POLAR>
-1.89149

>  <SCORE.SYSTEM.VDW>
-0.650845

>  <SCORE.SYSTEM.norm>
-0.193275

>  <SCORE.heavy>
35

>  <SCORE.norm>
-0.796209

$$$$

  rDOCK(R)          3D
libRbt.so/2013.1/901 2013/11/27
 36 40  0  0  0  0  0  0  0  0999 V2000
    7.4928  -33.2311   -4.3993 C   0  0  0  0  0  0
    6.2877  -32.5507   -3.7379 C   0  0  0  0  0  0
    8.5357  -32.1981   -4.8623 C   0  0  0  0  0  0
    9.2157  -31.5833   -3.7024 N   0  0  0  0  0  0
   10.1413  -30.5269   -4.1606 C   0  0  0  0  0  0
   10.4303  -29.5423   -3.0429 C   0  0  0  0  0  0
   11.7480  -29.1441   -2.6654 C   0  0  0  0  0  0
   12.9530  -29.7339   -3.3618 C   0  0  0  0  0  0
   11.9234  -28.1598   -1.6488 C   0  0  0  0  0  0
   13.2470  -27.7417   -1.2710 N   0  0  0  0  0  0
   13.6495  -27.4424   -0.0696 C   0  0  0  0  0  0
   12.7418  -27.4339    0.9930 O   0  0  0  0  0  0
   15.0667  -27.0578    0.1429 C   0  0  0  0  0  0
   15.4662  -26.3102    1.2612 C   0  0  0  0  0  0
   16.7696  -25.9638    1.4206 N   0  0  0  0  0  0
   17.7124  -26.3386    0.5163 C   0  0  0  0  0  0
   19.1293  -25.9042    0.6898 C   0  0  0  0  0  0
   17.3526  -27.0642   -0.5736 N   0  0  0  0  0  0
   16.0615  -27.4325   -0.7754 C   0  0  0  0  0  0
   10.7927  -27.6613   -0.9727 C   0  0  0  0  0  0
    9.5689  -28.0934   -1.3524 N   0  0  0  0  0  0
    8.3612  -27.7657   -0.8743 C   0  0  0  0  0  0
    7.4279  -28.4776   -1.6048 C   0  0  0  0  0  0
    8.0507  -29.2446   -2.5311 N   0  0  0  0  0  0
    9.3605  -28.9768   -2.3373 C   0  0  0  0  0  0
    9.9374  -32.6195   -2.9334 C   0  0  0  0  0  0
    8.9447  -33.6388   -2.3747 C   0  0  0  0  0  0
    8.1222  -34.1802   -3.4655 N   0  0  0  0  0  0
    8.0447  -35.6058   -3.6721 C   0  0  0  0  0  0
    9.0411  -36.3286   -3.3915 O   0  0  0  0  0  0
    6.7686  -36.2669   -4.1572 C   0  0  0  0  0  0
    6.3881  -35.7948   -5.5633 C   0  0  0  0  0  0
    6.8514  -36.8791   -6.5375 C   0  0  0  0  0  0
    7.3811  -38.0415   -5.7032 C   0  0  0  0  0  0
    6.9427  -37.7783   -4.2719 C   0  0  0  0  0  0
   11.8376  -27.8842    0.9413 H   0  0  0  0  0  0
  1  2  1  0  0  0
  1  3  1  0  0  0
  3  4  1  0  0  0
  4  5  1  0  0  0
  5  6  1  0  0  0
  6  7  2  0  0  0
  7  8  1  0  0  0
  7  9  1  0  0  0
  9 10  1  0  0  0
 10 11  2  0  0  0
 11 12  1  0  0  0
 11 13  1  0  0  0
 13 14  2  0  0  0
 14 15  1  0  0  0
 15 16  2  0  0  0
 16 17  1  0  0  0
 16 18  1  0  0  0
 18 19  2  0  0  0
  9 20  2  0  0  0
 20 21  1  0  0  0
 21 22  1  0  0  0
 22 23  2  0  0  0
 23 24  1  0  0  0
 24 25  2  0  0  0
  4 26  1  0  0  0
 26 27  1  0  0  0
 27 28  1  0  0  0
 28 29  1  0  0  0
 29 30  2  0  0  0
 29 31  1  0  0  0
 31 32  1  0  0  0
 32 33  1  0  0  0
 33 34  1  0  0  0
 34 35  1  0  0  0
 28  1  1  0  0  0
 35 31  1  0  0  0
 25  6  1  0  0  0
 19 13  1  0  0  0
 25 21  1  0  0  0
 12 36  1  0  0  0
M  END
>  <CHROM.0>
-7.26497849,60.23586240,7.33268851,-63.31365456,-177.78640096

>  <CHROM.1>
157.89955937,129.88800253,-143.13923675,16.96893522,158.20327712,63.65145726
10.77057064,-30.71624009,-2.33114830,2.27493656,0.16255682,-2.78493046

>  <RI>
0

>  <Rbt.Current_Directory>
/extra/banzai2/j5wagner/CELPP/2016_10_17_rdock_implementation/normal_run/tutorialVideo/tutorial_rdock_implementation/full_week_run/4-docking/5m96/SMCSS_4wlb_docking

>  <Rbt.Executable>
rbdock ($Id: //depot/dev/client3/rdock/2013.1/src/exe/rbdock.cxx#4 $)

>  <Rbt.Library>
libRbt.so (2013.1, Build901 2013/11/27)

>  <Rbt.Parameter_File>
/home/j5wagner/env_00/source/rDock/rDock_2013.1_src//data/scripts/dock.prm

>  <Rbt.Receptor>
/extra/banzai2/j5wagner/CELPP/2016_10_17_rdock_implementation/normal_run/tutorialVideo/tutorial_rdock_implementation/full_week_run/4-docking/5m96/SMCSS_4wlb_tech_prep/rDockGridGenInput.prm

>  <SCORE>
-27.1126

>  <SCORE.INTER>
-23.0328

>  <SCORE.INTER.CONST>
1

>  <SCORE.INTER.POLAR>
-0.8668

>  <SCORE.INTER.REPUL>
0.00788187

>  <SCORE.INTER.ROT>
5

>  <SCORE.INTER.VDW>
-30.5251

>  <SCORE.INTER.norm>
-0.65808

>  <SCORE.INTRA>
2.76854

>  <SCORE.INTRA.DIHEDRAL>
-2.38483

>  <SCORE.INTRA.DIHEDRAL.0>
9.74364

>  <SCORE.INTRA.POLAR>
0

>  <SCORE.INTRA.POLAR.0>
0

>  <SCORE.INTRA.REPUL>
0.148853

>  <SCORE.INTRA.REPUL.0>
0.108387

>  <SCORE.INTRA.VDW>
3.21669

>  <SCORE.INTRA.VDW.0>
-2.87247

>  <SCORE.INTRA.norm>
0.0791011

>  <SCORE.RESTR>
0

>  <SCORE.RESTR.CAVITY>
0

>  <SCORE.RESTR.norm>
0

>  <SCORE.SYSTEM>
-6.84838

>  <SCORE.SYSTEM.CONST>
0

>  <SCORE.SYSTEM.DIHEDRAL>
0.222428

>  <SCORE.SYSTEM.POLAR>
-1.89782

>  <SCORE.SYSTEM.VDW>
-0.507016

>  <SCORE.SYSTEM.norm>
-0.195668

>  <SCORE.heavy>
35

>  <SCORE.norm>
-0.774646

$$$$

  rDOCK(R)          3D
libRbt.so/2013.1/901 2013/11/27
 36 40  0  0  0  0  0  0  0  0999 V2000
    9.5277  -30.8906   -3.4771 C   0  0  0  0  0  0
    9.6477  -30.4046   -4.9269 C   0  0  0  0  0  0
    9.8173  -29.7550   -2.4792 C   0  0  0  0  0  0
    8.7254  -28.7582   -2.4879 N   0  0  0  0  0  0
    9.0652  -27.6285   -1.5985 C   0  0  0  0  0  0
   10.2477  -26.8502   -2.1446 C   0  0  0  0  0  0
   11.5234  -26.8050   -1.5059 C   0  0  0  0  0  0
   11.7473  -27.5247   -0.1955 C   0  0  0  0  0  0
   12.5988  -26.1044   -2.1269 C   0  0  0  0  0  0
   13.8920  -26.0649   -1.4979 N   0  0  0  0  0  0
   15.0045  -26.5301   -1.9885 C   0  0  0  0  0  0
   15.0027  -27.2125   -3.2081 O   0  0  0  0  0  0
   16.2582  -26.3750   -1.2103 C   0  0  0  0  0  0
   17.4884  -26.8434   -1.6963 C   0  0  0  0  0  0
   18.6162  -26.6969   -0.9541 N   0  0  0  0  0  0
   18.5843  -26.0884    0.2608 C   0  0  0  0  0  0
   19.8289  -25.9831    1.0772 C   0  0  0  0  0  0
   17.4070  -25.6244    0.7534 N   0  0  0  0  0  0
   16.2540  -25.7496    0.0476 C   0  0  0  0  0  0
   12.3585  -25.3942   -3.3192 C   0  0  0  0  0  0
   11.1235  -25.4486   -3.8673 N   0  0  0  0  0  0
   10.6585  -24.8727   -4.9838 C   0  0  0  0  0  0
    9.3319  -25.2416   -5.1094 C   0  0  0  0  0  0
    8.9730  -26.0411   -4.0769 N   0  0  0  0  0  0
   10.1024  -26.1381   -3.3421 C   0  0  0  0  0  0
    7.4579  -29.3948   -2.0708 C   0  0  0  0  0  0
    7.0695  -30.4847   -3.0699 C   0  0  0  0  0  0
    8.1813  -31.4326   -3.2276 N   0  0  0  0  0  0
    7.9622  -32.8432   -3.0196 C   0  0  0  0  0  0
    7.1000  -33.2199   -2.1779 O   0  0  0  0  0  0
    8.6979  -33.8873   -3.8378 C   0  0  0  0  0  0
    8.4022  -35.3051   -3.3404 C   0  0  0  0  0  0
    7.3430  -35.8925   -4.2743 C   0  0  0  0  0  0
    7.1124  -34.8799   -5.3920 C   0  0  0  0  0  0
    8.2407  -33.8664   -5.2933 C   0  0  0  0  0  0
   14.1681  -27.3264   -3.7679 H   0  0  0  0  0  0
  1  2  1  0  0  0
  1  3  1  0  0  0
  3  4  1  0  0  0
  4  5  1  0  0  0
  5  6  1  0  0  0
  6  7  2  0  0  0
  7  8  1  0  0  0
  7  9  1  0  0  0
  9 10  1  0  0  0
 10 11  2  0  0  0
 11 12  1  0  0  0
 11 13  1  0  0  0
 13 14  2  0  0  0
 14 15  1  0  0  0
 15 16  2  0  0  0
 16 17  1  0  0  0
 16 18  1  0  0  0
 18 19  2  0  0  0
  9 20  2  0  0  0
 20 21  1  0  0  0
 21 22  1  0  0  0
 22 23  2  0  0  0
 23 24  1  0  0  0
 24 25  2  0  0  0
  4 26  1  0  0  0
 26 27  1  0  0  0
 27 28  1  0  0  0
 28 29  1  0  0  0
 29 30  2  0  0  0
 29 31  1  0  0  0
 31 32  1  0  0  0
 32 33  1  0  0  0
 33 34  1  0  0  0
 34 35  1  0  0  0
 28  1  1  0  0  0
 35 31  1  0  0  0
 25  6  1  0  0  0
 19 13  1  0  0  0
 25 21  1  0  0  0
 12 36  1  0  0  0
M  END
>  <CHROM.0>
24.54932374,-47.10211070,-158.44349190,179.19724172,-168.19929019

>  <CHROM.1>
66.59163160,-112.89554869,118.81426385,3.27969896,-179.27506695,174.34888340
11.43037329,-28.70589878,-2.57427808,-2.52382341,-0.37030932,-0.06565911

>  <RI>
0

>  <Rbt.Current_Directory>
/extra/banzai2/j5wagner/CELPP/2016_10_17_rdock_implementation/normal_run/tutorialVideo/tutorial_rdock_implementation/full_week_run/4-docking/5m96/SMCSS_4wlb_docking

>  <Rbt.Executable>
rbdock ($Id: //depot/dev/client3/rdock/2013.1/src/exe/rbdock.cxx#4 $)

>  <Rbt.Library>
libRbt.so (2013.1, Build901 2013/11/27)

>  <Rbt.Parameter_File>
/home/j5wagner/env_00/source/rDock/rDock_2013.1_src//data/scripts/dock.prm

>  <Rbt.Receptor>
/extra/banzai2/j5wagner/CELPP/2016_10_17_rdock_implementation/normal_run/tutorialVideo/tutorial_rdock_implementation/full_week_run/4-docking/5m96/SMCSS_4wlb_tech_prep/rDockGridGenInput.prm

>  <SCORE>
-26.2478

>  <SCORE.INTER>
-22.8406

>  <SCORE.INTER.CONST>
1

>  <SCORE.INTER.POLAR>
-1.4571

>  <SCORE.INTER.REPUL>
0

>  <SCORE.INTER.ROT>
5

>  <SCORE.INTER.VDW>
-28.2865

>  <SCORE.INTER.norm>
-0.652588

>  <SCORE.INTRA>
-1.61894

>  <SCORE.INTRA.DIHEDRAL>
-3.04698

>  <SCORE.INTRA.DIHEDRAL.0>
9.74364

>  <SCORE.INTRA.POLAR>
0

>  <SCORE.INTRA.POLAR.0>
0

>  <SCORE.INTRA.REPUL>
-0.0779106

>  <SCORE.INTRA.REPUL.0>
0.108387

>  <SCORE.INTRA.VDW>
0.294098

>  <SCORE.INTRA.VDW.0>
-2.87247

>  <SCORE.INTRA.norm>
-0.0462556

>  <SCORE.RESTR>
0

>  <SCORE.RESTR.CAVITY>
0

>  <SCORE.RESTR.norm>
0

>  <SCORE.SYSTEM>
-1.78826

>  <SCORE.SYSTEM.CONST>
0

>  <SCORE.SYSTEM.DIHEDRAL>
2.46662

>  <SCORE.SYSTEM.POLAR>
-0.859767

>  <SCORE.SYSTEM.REPUL>
0.021976

>  <SCORE.SYSTEM.VDW>
-0.208239

>  <SCORE.SYSTEM.norm>
-0.051093

>  <SCORE.heavy>
35

>  <SCORE.norm>
-0.749937

$$$$

  rDOCK(R)          3D
libRbt.so/2013.1/901 2013/11/27
 36 40  0  0  0  0  0  0  0  0999 V2000
   12.2481  -27.3054   -1.4829 C   0  0  0  0  0  0
   11.2242  -27.0713   -0.3651 C   0  0  0  0  0  0
   11.6643  -28.1848   -2.6031 C   0  0  0  0  0  0
   10.6390  -27.4454   -3.3698 N   0  0  0  0  0  0
   10.0213  -28.3340   -4.3755 C   0  0  0  0  0  0
    9.1088  -29.3475   -3.7105 C   0  0  0  0  0  0
    8.9987  -30.7059   -4.1349 C   0  0  0  0  0  0
    9.7853  -31.1993   -5.3278 C   0  0  0  0  0  0
    8.1674  -31.6072   -3.4072 C   0  0  0  0  0  0
    8.0608  -32.9815   -3.8188 N   0  0  0  0  0  0
    6.9732  -33.6962   -3.8519 C   0  0  0  0  0  0
    5.7682  -33.1625   -3.3865 O   0  0  0  0  0  0
    7.0433  -35.0969   -4.3360 C   0  0  0  0  0  0
    5.9066  -35.9187   -4.3771 C   0  0  0  0  0  0
    6.0065  -37.2007   -4.8142 N   0  0  0  0  0  0
    7.1955  -37.7112   -5.2298 C   0  0  0  0  0  0
    7.2874  -39.1371   -5.6599 C   0  0  0  0  0  0
    8.3103  -36.9364   -5.2020 N   0  0  0  0  0  0
    8.2589  -35.6497   -4.7719 C   0  0  0  0  0  0
    7.3997  -31.1181   -2.3323 C   0  0  0  0  0  0
    7.5218  -29.8157   -1.9896 N   0  0  0  0  0  0
    6.9121  -29.1284   -1.0147 C   0  0  0  0  0  0
    7.3837  -27.8302   -1.0764 C   0  0  0  0  0  0
    8.2804  -27.7097   -2.0842 N   0  0  0  0  0  0
    8.3308  -28.9508   -2.6152 C   0  0  0  0  0  0
   11.2472  -26.2620   -4.0143 C   0  0  0  0  0  0
   11.7783  -25.3040   -2.9481 C   0  0  0  0  0  0
   12.6929  -26.0204   -2.0483 N   0  0  0  0  0  0
   14.0304  -25.5240   -1.8337 C   0  0  0  0  0  0
   14.6230  -24.9139   -2.7666 O   0  0  0  0  0  0
   14.7184  -25.6596   -0.4887 C   0  0  0  0  0  0
   15.2907  -27.0655   -0.2870 C   0  0  0  0  0  0
   16.7859  -26.9864   -0.5992 C   0  0  0  0  0  0
   17.1187  -25.5194   -0.8537 C   0  0  0  0  0  0
   15.9146  -24.7180   -0.3866 C   0  0  0  0  0  0
    4.9120  -33.6997   -3.3503 H   0  0  0  0  0  0
  1  2  1  0  0  0
  1  3  1  0  0  0
  3  4  1  0  0  0
  4  5  1  0  0  0
  5  6  1  0  0  0
  6  7  2  0  0  0
  7  8  1  0  0  0
  7  9  1  0  0  0
  9 10  1  0  0  0
 10 11  2  0  0  0
 11 12  1  0  0  0
 11 13  1  0  0  0
 13 14  2  0  0  0
 14 15  1  0  0  0
 15 16  2  0  0  0
 16 17  1  0  0  0
 16 18  1  0  0  0
 18 19  2  0  0  0
  9 20  2  0  0  0
 20 21  1  0  0  0
 21 22  1  0  0  0
 22 23  2  0  0  0
 23 24  1  0  0  0
 24 25  2  0  0  0
  4 26  1  0  0  0
 26 27  1  0  0  0
 27 28  1  0  0  0
 28 29  1  0  0  0
 29 30  2  0  0  0
 29 31  1  0  0  0
 31 32  1  0  0  0
 32 33  1  0  0  0
 33 34  1  0  0  0
 34 35  1  0  0  0
 28  1  1  0  0  0
 35 31  1  0  0  0
 25  6  1  0  0  0
 19 13  1  0  0  0
 25 21  1  0  0  0
 12 36  1  0  0  0
M  END
>  <CHROM.0>
-154.70267353,58.54963824,-169.58784652,179.82607971,-175.83721744

>  <CHROM.1>
72.39394526,-141.62166777,-138.75751805,-176.75586626,179.16455821,79.68517110
10.12535269,-29.99202699,-2.89476561,-0.96010447,0.01431609,-2.84411077

>  <RI>
0

>  <Rbt.Current_Directory>
/extra/banzai2/j5wagner/CELPP/2016_10_17_rdock_implementation/normal_run/tutorialVideo/tutorial_rdock_implementation/full_week_run/4-docking/5m96/SMCSS_4wlb_docking

>  <Rbt.Executable>
rbdock ($Id: //depot/dev/client3/rdock/2013.1/src/exe/rbdock.cxx#4 $)

>  <Rbt.Library>
libRbt.so (2013.1, Build901 2013/11/27)

>  <Rbt.Parameter_File>
/home/j5wagner/env_00/source/rDock/rDock_2013.1_src//data/scripts/dock.prm

>  <Rbt.Receptor>
/extra/banzai2/j5wagner/CELPP/2016_10_17_rdock_implementation/normal_run/tutorialVideo/tutorial_rdock_implementation/full_week_run/4-docking/5m96/SMCSS_4wlb_tech_prep/rDockGridGenInput.prm

>  <SCORE>
-25.3996

>  <SCORE.INTER>
-15.9301

>  <SCORE.INTER.CONST>
1

>  <SCORE.INTER.POLAR>
0

>  <SCORE.INTER.REPUL>
0

>  <SCORE.INTER.ROT>
5

>  <SCORE.INTER.VDW>
-26.3301

>  <SCORE.INTER.norm>
-0.455145

>  <SCORE.INTRA>
-0.369143

>  <SCORE.INTRA.DIHEDRAL>
-4.99202

>  <SCORE.INTRA.DIHEDRAL.0>
9.74364

>  <SCORE.INTRA.POLAR>
0

>  <SCORE.INTRA.POLAR.0>
0

>  <SCORE.INTRA.REPUL>
0.26223

>  <SCORE.INTRA.REPUL.0>
0.108387

>  <SCORE.INTRA.VDW>
0.815717

>  <SCORE.INTRA.VDW.0>
-2.87247

>  <SCORE.INTRA.norm>
-0.0105469

>  <SCORE.RESTR>
0

>  <SCORE.RESTR.CAVITY>
0

>  <SCORE.RESTR.norm>
0

>  <SCORE.SYSTEM>
-9.10035

>  <SCORE.SYSTEM.CONST>
0

>  <SCORE.SYSTEM.DIHEDRAL>
1.07672

>  <SCORE.SYSTEM.POLAR>
-2.67407

>  <SCORE.SYSTEM.VDW>
-0.546888

>  <SCORE.SYSTEM.norm>
-0.26001

>  <SCORE.heavy>
35

>  <SCORE.norm>
-0.725702

$$$$

  rDOCK(R)          3D
libRbt.so/2013.1/901 2013/11/27
 36 40  0  0  0  0  0  0  0  0999 V2000
   12.2480  -27.6491   -1.6557 C   0  0  0  0  0  0
   11.3128  -27.3755   -0.4711 C   0  0  0  0  0  0
   11.5256  -28.4220   -2.7737 C   0  0  0  0  0  0
   10.5314  -27.5607   -3.4486 N   0  0  0  0  0  0
    9.7807  -28.3448   -4.4508 C   0  0  0  0  0  0
    8.8742  -29.3561   -3.7742 C   0  0  0  0  0  0
    8.7075  -30.6966   -4.2353 C   0  0  0  0  0  0
    9.4225  -31.1705   -5.4800 C   0  0  0  0  0  0
    7.8881  -31.5999   -3.4966 C   0  0  0  0  0  0
    7.7251  -32.9569   -3.9455 N   0  0  0  0  0  0
    8.4567  -33.9776   -3.6024 C   0  0  0  0  0  0
    9.5711  -33.7971   -2.7786 O   0  0  0  0  0  0
    8.1242  -35.3191   -4.1421 C   0  0  0  0  0  0
    7.0064  -35.5245   -4.9651 C   0  0  0  0  0  0
    6.7223  -36.7673   -5.4332 N   0  0  0  0  0  0
    7.5122  -37.8307   -5.1290 C   0  0  0  0  0  0
    7.1510  -39.1939   -5.6166 C   0  0  0  0  0  0
    8.6010  -37.6588   -4.3362 N   0  0  0  0  0  0
    8.9236  -36.4351   -3.8442 C   0  0  0  0  0  0
    7.1862  -31.1270   -2.3708 C   0  0  0  0  0  0
    7.3594  -29.8400   -1.9937 N   0  0  0  0  0  0
    6.8158  -29.1698   -0.9690 C   0  0  0  0  0  0
    7.3186  -27.8825   -1.0129 C   0  0  0  0  0  0
    8.1689  -27.7519   -2.0589 N   0  0  0  0  0  0
    8.1605  -28.9759   -2.6304 C   0  0  0  0  0  0
   11.2085  -26.4082   -4.0802 C   0  0  0  0  0  0
   11.8827  -25.5500   -3.0098 C   0  0  0  0  0  0
   12.7764  -26.3846   -2.1947 N   0  0  0  0  0  0
   14.1633  -26.0190   -2.0396 C   0  0  0  0  0  0
   14.7568  -25.4227   -2.9808 O   0  0  0  0  0  0
   14.9091  -26.2756   -0.7440 C   0  0  0  0  0  0
   16.4259  -26.2575   -0.9530 C   0  0  0  0  0  0
   16.9208  -24.8818   -0.5038 C   0  0  0  0  0  0
   15.7258  -24.1418    0.0895 C   0  0  0  0  0  0
   14.6290  -25.1772    0.2774 C   0  0  0  0  0  0
    9.8278  -32.8957   -2.3984 H   0  0  0  0  0  0
  1  2  1  0  0  0
  1  3  1  0  0  0
  3  4  1  0  0  0
  4  5  1  0  0  0
  5  6  1  0  0  0
  6  7  2  0  0  0
  7  8  1  0  0  0
  7  9  1  0  0  0
  9 10  1  0  0  0
 10 11  2  0  0  0
 11 12  1  0  0  0
 11 13  1  0  0  0
 13 14  2  0  0  0
 14 15  1  0  0  0
 15 16  2  0  0  0
 16 17  1  0  0  0
 16 18  1  0  0  0
 18 19  2  0  0  0
  9 20  2  0  0  0
 20 21  1  0  0  0
 21 22  1  0  0  0
 22 23  2  0  0  0
 23 24  1  0  0  0
 24 25  2  0  0  0
  4 26  1  0  0  0
 26 27  1  0  0  0
 27 28  1  0  0  0
 28 29  1  0  0  0
 29 30  2  0  0  0
 29 31  1  0  0  0
 31 32  1  0  0  0
 32 33  1  0  0  0
 33 34  1  0  0  0
 34 35  1  0  0  0
 28  1  1  0  0  0
 35 31  1  0  0  0
 25  6  1  0  0  0
 19 13  1  0  0  0
 25 21  1  0  0  0
 12 36  1  0  0  0
M  END
>  <CHROM.0>
-157.16910051,58.23917601,-164.92677783,68.90300731,-173.85158651

>  <CHROM.1>
69.23401006,-138.18186046,91.05737954,2.23287724,-2.86433037,160.66901988
10.31015207,-30.03751224,-2.86794399,-1.02321653,0.06258071,-2.88032188

>  <RI>
0

>  <Rbt.Current_Directory>
/extra/banzai2/j5wagner/CELPP/2016_10_17_rdock_implementation/normal_run/tutorialVideo/tutorial_rdock_implementation/full_week_run/4-docking/5m96/SMCSS_4wlb_docking

>  <Rbt.Executable>
rbdock ($Id: //depot/dev/client3/rdock/2013.1/src/exe/rbdock.cxx#4 $)

>  <Rbt.Library>
libRbt.so (2013.1, Build901 2013/11/27)

>  <Rbt.Parameter_File>
/home/j5wagner/env_00/source/rDock/rDock_2013.1_src//data/scripts/dock.prm

>  <Rbt.Receptor>
/extra/banzai2/j5wagner/CELPP/2016_10_17_rdock_implementation/normal_run/tutorialVideo/tutorial_rdock_implementation/full_week_run/4-docking/5m96/SMCSS_4wlb_tech_prep/rDockGridGenInput.prm

>  <SCORE>
-25.2428

>  <SCORE.INTER>
-16.4977

>  <SCORE.INTER.CONST>
1

>  <SCORE.INTER.POLAR>
0

>  <SCORE.INTER.REPUL>
0.0135446

>  <SCORE.INTER.ROT>
5

>  <SCORE.INTER.VDW>
-26.9654

>  <SCORE.INTER.norm>
-0.471361

>  <SCORE.INTRA>
0.385747

>  <SCORE.INTRA.DIHEDRAL>
-0.842765

>  <SCORE.INTRA.DIHEDRAL.0>
9.74364

>  <SCORE.INTRA.POLAR>
0

>  <SCORE.INTRA.POLAR.0>
0

>  <SCORE.INTRA.REPUL>
0.22122

>  <SCORE.INTRA.REPUL.0>
0.108387

>  <SCORE.INTRA.VDW>
-0.298969

>  <SCORE.INTRA.VDW.0>
-2.87247

>  <SCORE.INTRA.norm>
0.0110213

>  <SCORE.RESTR>
0

>  <SCORE.RESTR.CAVITY>
0

>  <SCORE.RESTR.norm>
0

>  <SCORE.SYSTEM>
-9.13086

>  <SCORE.SYSTEM.CONST>
0

>  <SCORE.SYSTEM.DIHEDRAL>
1.50467

>  <SCORE.SYSTEM.POLAR>
-2.68703

>  <SCORE.SYSTEM.VDW>
-0.74728

>  <SCORE.SYSTEM.norm>
-0.260882

>  <SCORE.heavy>
35

>  <SCORE.norm>
-0.721222

$$$$

  rDOCK(R)          3D
libRbt.so/2013.1/901 2013/11/27
 36 40  0  0  0  0  0  0  0  0999 V2000
    8.2654  -29.1754   -1.8061 C   0  0  0  0  0  0
    9.5619  -29.3655   -1.0089 C   0  0  0  0  0  0
    7.9699  -27.6845   -2.0491 C   0  0  0  0  0  0
    8.9304  -27.1102   -3.0153 N   0  0  0  0  0  0
    8.6936  -25.6593   -3.1619 C   0  0  0  0  0  0
    9.9879  -24.9313   -3.4735 C   0  0  0  0  0  0
   11.2202  -25.1937   -2.8026 C   0  0  0  0  0  0
   11.2818  -26.2162   -1.6910 C   0  0  0  0  0  0
   12.4038  -24.5102   -3.2086 C   0  0  0  0  0  0
   13.6534  -24.7780   -2.5480 N   0  0  0  0  0  0
   13.9035  -24.6315   -1.2788 C   0  0  0  0  0  0
   12.9317  -24.0960   -0.4291 O   0  0  0  0  0  0
   15.2480  -24.9868   -0.7615 C   0  0  0  0  0  0
   16.3199  -25.2595   -1.6249 C   0  0  0  0  0  0
   17.5354  -25.5938   -1.1199 N   0  0  0  0  0  0
   17.7453  -25.6606    0.2213 C   0  0  0  0  0  0
   19.0772  -26.0771    0.7497 C   0  0  0  0  0  0
   16.7253  -25.3995    1.0787 N   0  0  0  0  0  0
   15.4928  -25.0624    0.6197 C   0  0  0  0  0  0
   12.3178  -23.5217   -4.2083 C   0  0  0  0  0  0
   11.1194  -23.2941   -4.7919 N   0  0  0  0  0  0
   10.7907  -22.4245   -5.7565 C   0  0  0  0  0  0
    9.4403  -22.5856   -6.0061 C   0  0  0  0  0  0
    8.9314  -23.5485   -5.2012 N   0  0  0  0  0  0
    9.9966  -23.9518   -4.4749 C   0  0  0  0  0  0
    8.8081  -27.7987   -4.3179 C   0  0  0  0  0  0
    9.1681  -29.2761   -4.1615 C   0  0  0  0  0  0
    8.3504  -29.8765   -3.0984 N   0  0  0  0  0  0
    7.5637  -31.0546   -3.3710 C   0  0  0  0  0  0
    7.0867  -31.2285   -4.5269 O   0  0  0  0  0  0
    7.3508  -32.1251   -2.3177 C   0  0  0  0  0  0
    6.4210  -33.2334   -2.8196 C   0  0  0  0  0  0
    7.3115  -34.3981   -3.2554 C   0  0  0  0  0  0
    8.7470  -34.0324   -2.8901 C   0  0  0  0  0  0
    8.6624  -32.8239   -1.9722 C   0  0  0  0  0  0
   13.0982  -23.9325    0.5550 H   0  0  0  0  0  0
  1  2  1  0  0  0
  1  3  1  0  0  0
  3  4  1  0  0  0
  4  5  1  0  0  0
  5  6  1  0  0  0
  6  7  2  0  0  0
  7  8  1  0  0  0
  7  9  1  0  0  0
  9 10  1  0  0  0
 10 11  2  0  0  0
 11 12  1  0  0  0
 11 13  1  0  0  0
 13 14  2  0  0  0
 14 15  1  0  0  0
 15 16  2  0  0  0
 16 17  1  0  0  0
 16 18  1  0  0  0
 18 19  2  0  0  0
  9 20  2  0  0  0
 20 21  1  0  0  0
 21 22  1  0  0  0
 22 23  2  0  0  0
 23 24  1  0  0  0
 24 25  2  0  0  0
  4 26  1  0  0  0
 26 27  1  0  0  0
 27 28  1  0  0  0
 28 29  1  0  0  0
 29 30  2  0  0  0
 29 31  1  0  0  0
 31 32  1  0  0  0
 32 33  1  0  0  0
 33 34  1  0  0  0
 34 35  1  0  0  0
 28  1  1  0  0  0
 35 31  1  0  0  0
 25  6  1  0  0  0
 19 13  1  0  0  0
 25 21  1  0  0  0
 12 36  1  0  0  0
M  END
>  <CHROM.0>
-155.94939959,-177.61620148,-178.20077489,178.93647216,-177.15284020

>  <CHROM.1>
149.03791410,-43.95782355,-58.72693613,-177.56866340,10.91583754,176.85679379
11.07992161,-27.11265456,-2.56537510,-2.55293665,-0.50018768,-0.35479970

>  <RI>
0

>  <Rbt.Current_Directory>
/extra/banzai2/j5wagner/CELPP/2016_10_17_rdock_implementation/normal_run/tutorialVideo/tutorial_rdock_implementation/full_week_run/4-docking/5m96/SMCSS_4wlb_docking

>  <Rbt.Executable>
rbdock ($Id: //depot/dev/client3/rdock/2013.1/src/exe/rbdock.cxx#4 $)

>  <Rbt.Library>
libRbt.so (2013.1, Build901 2013/11/27)

>  <Rbt.Parameter_File>
/home/j5wagner/env_00/source/rDock/rDock_2013.1_src//data/scripts/dock.prm

>  <Rbt.Receptor>
/extra/banzai2/j5wagner/CELPP/2016_10_17_rdock_implementation/normal_run/tutorialVideo/tutorial_rdock_implementation/full_week_run/4-docking/5m96/SMCSS_4wlb_tech_prep/rDockGridGenInput.prm

>  <SCORE>
-25.1772

>  <SCORE.INTER>
-22.443

>  <SCORE.INTER.CONST>
1

>  <SCORE.INTER.POLAR>
-1.82597

>  <SCORE.INTER.REPUL>
0

>  <SCORE.INTER.ROT>
5

>  <SCORE.INTER.VDW>
-26.6348

>  <SCORE.INTER.norm>
-0.64123

>  <SCORE.INTRA>
0.092306

>  <SCORE.INTRA.DIHEDRAL>
-1.72475

>  <SCORE.INTRA.DIHEDRAL.0>
9.74364

>  <SCORE.INTRA.POLAR>
0

>  <SCORE.INTRA.POLAR.0>
0

>  <SCORE.INTRA.REPUL>
-0.108387

>  <SCORE.INTRA.REPUL.0>
0.108387

>  <SCORE.INTRA.VDW>
1.49662

>  <SCORE.INTRA.VDW.0>
-2.87247

>  <SCORE.INTRA.norm>
0.00263731

>  <SCORE.RESTR>
0

>  <SCORE.RESTR.CAVITY>
0

>  <SCORE.RESTR.norm>
0

>  <SCORE.SYSTEM>
-2.82647

>  <SCORE.SYSTEM.CONST>
0

>  <SCORE.SYSTEM.DIHEDRAL>
0.864993

>  <SCORE.SYSTEM.POLAR>
-1.60794

>  <SCORE.SYSTEM.VDW>
2.20803

>  <SCORE.SYSTEM.norm>
-0.0807564

>  <SCORE.heavy>
35

>  <SCORE.norm>
-0.719349

$$$$

  rDOCK(R)          3D
libRbt.so/2013.1/901 2013/11/27
 36 40  0  0  0  0  0  0  0  0999 V2000
    8.2878  -32.5831   -4.8658 C   0  0  0  0  0  0
    7.0001  -31.9980   -4.2726 C   0  0  0  0  0  0
    9.4370  -31.5598   -4.8305 C   0  0  0  0  0  0
    9.8949  -31.3331   -3.4432 N   0  0  0  0  0  0
   10.9291  -30.2784   -3.4182 C   0  0  0  0  0  0
   10.3029  -28.9158   -3.1865 C   0  0  0  0  0  0
   10.8552  -27.6995   -3.6896 C   0  0  0  0  0  0
   12.1502  -27.7139   -4.4692 C   0  0  0  0  0  0
   10.1617  -26.4711   -3.4825 C   0  0  0  0  0  0
   10.7031  -25.2419   -3.9977 N   0  0  0  0  0  0
   10.1589  -24.0623   -3.9132 C   0  0  0  0  0  0
    8.8909  -23.9134   -3.3445 O   0  0  0  0  0  0
   10.8769  -22.8930   -4.4777 C   0  0  0  0  0  0
   12.2372  -22.9581   -4.8156 C   0  0  0  0  0  0
   12.8687  -21.8663   -5.3191 N   0  0  0  0  0  0
   12.2028  -20.6982   -5.5175 C   0  0  0  0  0  0
   12.9312  -19.4996   -6.0268 C   0  0  0  0  0  0
   10.8854  -20.6091   -5.2007 N   0  0  0  0  0  0
   10.2130  -21.6740   -4.6936 C   0  0  0  0  0  0
    8.9856  -26.4683   -2.7075 C   0  0  0  0  0  0
    8.5211  -27.6459   -2.2319 N   0  0  0  0  0  0
    7.4359  -27.8981   -1.4879 C   0  0  0  0  0  0
    7.4002  -29.2631   -1.2709 C   0  0  0  0  0  0
    8.4570  -29.8568   -1.8749 N   0  0  0  0  0  0
    9.1153  -28.8264   -2.4491 C   0  0  0  0  0  0
   10.4136  -32.5938   -2.8709 C   0  0  0  0  0  0
    9.2951  -33.6335   -2.8030 C   0  0  0  0  0  0
    8.6865  -33.7954   -4.1307 N   0  0  0  0  0  0
    8.6019  -35.1043   -4.7313 C   0  0  0  0  0  0
    9.4972  -35.9594   -4.4844 O   0  0  0  0  0  0
    7.4249  -35.5008   -5.6021 C   0  0  0  0  0  0
    7.7257  -36.7617   -6.4173 C   0  0  0  0  0  0
    7.0696  -37.9327   -5.6841 C   0  0  0  0  0  0
    6.2763  -37.3502   -4.5183 C   0  0  0  0  0  0
    6.2066  -35.8501   -4.7525 C   0  0  0  0  0  0
    8.5147  -23.0128   -3.0792 H   0  0  0  0  0  0
  1  2  1  0  0  0
  1  3  1  0  0  0
  3  4  1  0  0  0
  4  5  1  0  0  0
  5  6  1  0  0  0
  6  7  2  0  0  0
  7  8  1  0  0  0
  7  9  1  0  0  0
  9 10  1  0  0  0
 10 11  2  0  0  0
 11 12  1  0  0  0
 11 13  1  0  0  0
 13 14  2  0  0  0
 14 15  1  0  0  0
 15 16  2  0  0  0
 16 17  1  0  0  0
 16 18  1  0  0  0
 18 19  2  0  0  0
  9 20  2  0  0  0
 20 21  1  0  0  0
 21 22  1  0  0  0
 22 23  2  0  0  0
 23 24  1  0  0  0
 24 25  2  0  0  0
  4 26  1  0  0  0
 26 27  1  0  0  0
 27 28  1  0  0  0
 28 29  1  0  0  0
 29 30  2  0  0  0
 29 31  1  0  0  0
 31 32  1  0  0  0
 32 33  1  0  0  0
 33 34  1  0  0  0
 34 35  1  0  0  0
 28  1  1  0  0  0
 35 31  1  0  0  0
 25  6  1  0  0  0
 19 13  1  0  0  0
 25 21  1  0  0  0
 12 36  1  0  0  0
M  END
>  <CHROM.0>
14.92910526,58.64644069,-164.20055701,177.21499343,-161.03664337

>  <CHROM.1>
92.06787218,-150.32087624,177.97880198,166.62892897,-15.03431638,164.70232003
9.47397649,-29.10821698,-4.03997774,-1.95440882,0.82685119,0.28830955

>  <RI>
0

>  <Rbt.Current_Directory>
/extra/banzai2/j5wagner/CELPP/2016_10_17_rdock_implementation/normal_run/tutorialVideo/tutorial_rdock_implementation/full_week_run/4-docking/5m96/SMCSS_4wlb_docking

>  <Rbt.Executable>
rbdock ($Id: //depot/dev/client3/rdock/2013.1/src/exe/rbdock.cxx#4 $)

>  <Rbt.Library>
libRbt.so (2013.1, Build901 2013/11/27)

>  <Rbt.Parameter_File>
/home/j5wagner/env_00/source/rDock/rDock_2013.1_src//data/scripts/dock.prm

>  <Rbt.Receptor>
/extra/banzai2/j5wagner/CELPP/2016_10_17_rdock_implementation/normal_run/tutorialVideo/tutorial_rdock_implementation/full_week_run/4-docking/5m96/SMCSS_4wlb_tech_prep/rDockGridGenInput.prm

>  <SCORE>
-23.2843

>  <SCORE.INTER>
-17.9725

>  <SCORE.INTER.CONST>
1

>  <SCORE.INTER.POLAR>
-0.717035

>  <SCORE.INTER.REPUL>
0

>  <SCORE.INTER.ROT>
5

>  <SCORE.INTER.VDW>
-25.9346

>  <SCORE.INTER.norm>
-0.5135

>  <SCORE.INTRA>
1.02974

>  <SCORE.INTRA.DIHEDRAL>
-4.09766

>  <SCORE.INTRA.DIHEDRAL.0>
9.74364

>  <SCORE.INTRA.POLAR>
0

>  <SCORE.INTRA.POLAR.0>
0

>  <SCORE.INTRA.REPUL>
0.363596

>  <SCORE.INTRA.REPUL.0>
0.108387

>  <SCORE.INTRA.VDW>
1.26059

>  <SCORE.INTRA.VDW.0>
-2.87247

>  <SCORE.INTRA.norm>
0.0294211

>  <SCORE.RESTR>
0

>  <SCORE.RESTR.CAVITY>
0

>  <SCORE.RESTR.norm>
0

>  <SCORE.SYSTEM>
-6.34156

>  <SCORE.SYSTEM.CONST>
0

>  <SCORE.SYSTEM.DIHEDRAL>
1.23554

>  <SCORE.SYSTEM.POLAR>
-1.91459

>  <SCORE.SYSTEM.VDW>
-0.449725

>  <SCORE.SYSTEM.norm>
-0.181187

>  <SCORE.heavy>
35

>  <SCORE.norm>
-0.665267

$$$$

  rDOCK(R)          3D
libRbt.so/2013.1/901 2013/11/27
 36 40  0  0  0  0  0  0  0  0999 V2000
    7.6693  -33.1475   -4.0314 C   0  0  0  0  0  0
    6.5018  -32.4912   -3.2839 C   0  0  0  0  0  0
    8.8143  -32.1473   -4.2721 C   0  0  0  0  0  0
    9.4982  -31.8180   -3.0033 N   0  0  0  0  0  0
   10.5282  -30.7850   -3.2377 C   0  0  0  0  0  0
    9.9321  -29.3945   -3.1223 C   0  0  0  0  0  0
   10.4411  -28.2590   -3.8217 C   0  0  0  0  0  0
   11.6585  -28.3906   -4.7080 C   0  0  0  0  0  0
    9.7750  -27.0035   -3.7076 C   0  0  0  0  0  0
   10.2721  -25.8565   -4.4196 N   0  0  0  0  0  0
   10.5639  -24.6957   -3.9075 C   0  0  0  0  0  0
   10.3260  -24.4462   -2.5531 O   0  0  0  0  0  0
   11.0972  -23.6296   -4.7908 C   0  0  0  0  0  0
   11.5911  -22.4230   -4.2719 C   0  0  0  0  0  0
   12.0613  -21.4618   -5.1081 N   0  0  0  0  0  0
   12.0762  -21.6470   -6.4544 C   0  0  0  0  0  0
   12.5535  -20.5562   -7.3539 C   0  0  0  0  0  0
   11.6059  -22.8063   -6.9823 N   0  0  0  0  0  0
   11.1251  -23.7950   -6.1855 C   0  0  0  0  0  0
    8.6755  -26.8857   -2.8352 C   0  0  0  0  0  0
    8.2516  -27.9876   -2.1758 N   0  0  0  0  0  0
    7.2387  -28.1282   -1.3105 C   0  0  0  0  0  0
    7.2170  -29.4550   -0.9221 C   0  0  0  0  0  0
    8.2109  -30.1358   -1.5407 N   0  0  0  0  0  0
    8.8180  -29.1952   -2.2968 C   0  0  0  0  0  0
   10.0977  -33.0380   -2.4220 C   0  0  0  0  0  0
    9.0001  -34.0467   -2.0837 C   0  0  0  0  0  0
    8.1779  -34.3037   -3.2742 N   0  0  0  0  0  0
    7.9869  -35.6551   -3.7416 C   0  0  0  0  0  0
    8.9059  -36.5047   -3.5760 O   0  0  0  0  0  0
    6.6790  -36.0978   -4.3695 C   0  0  0  0  0  0
    6.4614  -35.4465   -5.7382 C   0  0  0  0  0  0
    6.8600  -36.4810   -6.7918 C   0  0  0  0  0  0
    7.1836  -37.7770   -6.0548 C   0  0  0  0  0  0
    6.6773  -37.6007   -4.6325 C   0  0  0  0  0  0
   10.5410  -23.5598   -2.1161 H   0  0  0  0  0  0
  1  2  1  0  0  0
  1  3  1  0  0  0
  3  4  1  0  0  0
  4  5  1  0  0  0
  5  6  1  0  0  0
  6  7  2  0  0  0
  7  8  1  0  0  0
  7  9  1  0  0  0
  9 10  1  0  0  0
 10 11  2  0  0  0
 11 12  1  0  0  0
 11 13  1  0  0  0
 13 14  2  0  0  0
 14 15  1  0  0  0
 15 16  2  0  0  0
 16 17  1  0  0  0
 16 18  1  0  0  0
 18 19  2  0  0  0
  9 20  2  0  0  0
 20 21  1  0  0  0
 21 22  1  0  0  0
 22 23  2  0  0  0
 23 24  1  0  0  0
 24 25  2  0  0  0
  4 26  1  0  0  0
 26 27  1  0  0  0
 27 28  1  0  0  0
 28 29  1  0  0  0
 29 30  2  0  0  0
 29 31  1  0  0  0
 31 32  1  0  0  0
 32 33  1  0  0  0
 33 34  1  0  0  0
 34 35  1  0  0  0
 28  1  1  0  0  0
 35 31  1  0  0  0
 25  6  1  0  0  0
 19 13  1  0  0  0
 25 21  1  0  0  0
 12 36  1  0  0  0
M  END
>  <CHROM.0>
-154.67908530,58.97266543,-172.69444860,67.42213709,-172.34083957

>  <CHROM.1>
87.80092685,-151.71745041,-126.52221505,179.80133376,-171.57809014,69.15665372
9.26627983,-29.59427444,-3.97462943,-2.42813792,1.17977245,0.74752106

>  <RI>
0

>  <Rbt.Current_Directory>
/extra/banzai2/j5wagner/CELPP/2016_10_17_rdock_implementation/normal_run/tutorialVideo/tutorial_rdock_implementation/full_week_run/4-docking/5m96/SMCSS_4wlb_docking

>  <Rbt.Executable>
rbdock ($Id: //depot/dev/client3/rdock/2013.1/src/exe/rbdock.cxx#4 $)

>  <Rbt.Library>
libRbt.so (2013.1, Build901 2013/11/27)

>  <Rbt.Parameter_File>
/home/j5wagner/env_00/source/rDock/rDock_2013.1_src//data/scripts/dock.prm

>  <Rbt.Receptor>
/extra/banzai2/j5wagner/CELPP/2016_10_17_rdock_implementation/normal_run/tutorialVideo/tutorial_rdock_implementation/full_week_run/4-docking/5m96/SMCSS_4wlb_tech_prep/rDockGridGenInput.prm

>  <SCORE>
-22.6561

>  <SCORE.INTER>
-14.6996

>  <SCORE.INTER.CONST>
1

>  <SCORE.INTER.POLAR>
0

>  <SCORE.INTER.REPUL>
0

>  <SCORE.INTER.ROT>
5

>  <SCORE.INTER.VDW>
-25.0996

>  <SCORE.INTER.norm>
-0.419987

>  <SCORE.INTRA>
1.26506

>  <SCORE.INTRA.DIHEDRAL>
-2.93654

>  <SCORE.INTRA.DIHEDRAL.0>
9.74364

>  <SCORE.INTRA.POLAR>
0

>  <SCORE.INTRA.POLAR.0>
0

>  <SCORE.INTRA.REPUL>
0.379172

>  <SCORE.INTRA.REPUL.0>
0.108387

>  <SCORE.INTRA.VDW>
0.837469

>  <SCORE.INTRA.VDW.0>
-2.87247

>  <SCORE.INTRA.norm>
0.0361445

>  <SCORE.RESTR>
0

>  <SCORE.RESTR.CAVITY>
0

>  <SCORE.RESTR.norm>
0

>  <SCORE.SYSTEM>
-9.22162

>  <SCORE.SYSTEM.CONST>
0

>  <SCORE.SYSTEM.DIHEDRAL>
1.32775

>  <SCORE.SYSTEM.POLAR>
-2.69091

>  <SCORE.SYSTEM.VDW>
-0.736416

>  <SCORE.SYSTEM.norm>
-0.263475

>  <SCORE.heavy>
35

>  <SCORE.norm>
-0.647318

$$$$

  rDOCK(R)          3D
libRbt.so/2013.1/901 2013/11/27
 36 40  0  0  0  0  0  0  0  0999 V2000
   11.4622  -24.5110   -3.9045 C   0  0  0  0  0  0
   11.9223  -24.4449   -2.4428 C   0  0  0  0  0  0
   11.6437  -25.9244   -4.4862 C   0  0  0  0  0  0
   10.6736  -26.8662   -3.8879 N   0  0  0  0  0  0
   10.9258  -28.2347   -4.3841 C   0  0  0  0  0  0
   10.2087  -29.2595   -3.5252 C   0  0  0  0  0  0
    9.7527  -30.5193   -4.0178 C   0  0  0  0  0  0
    9.9386  -30.8827   -5.4732 C   0  0  0  0  0  0
    9.1497  -31.4505   -3.1221 C   0  0  0  0  0  0
    8.6997  -32.7283   -3.6062 N   0  0  0  0  0  0
    9.1917  -33.8914   -3.2900 C   0  0  0  0  0  0
   10.3144  -33.9771   -2.4622 O   0  0  0  0  0  0
    8.5800  -35.1151   -3.8643 C   0  0  0  0  0  0
    7.4036  -35.0609   -4.6273 C   0  0  0  0  0  0
    6.8620  -36.2008   -5.1290 N   0  0  0  0  0  0
    7.4463  -37.4094   -4.9169 C   0  0  0  0  0  0
    6.8050  -38.6517   -5.4384 C   0  0  0  0  0  0
    8.5864  -37.4894   -4.1836 N   0  0  0  0  0  0
    9.1632  -36.3768   -3.6612 C   0  0  0  0  0  0
    8.9348  -31.0743   -1.7819 C   0  0  0  0  0  0
    9.3621  -29.8577   -1.3747 N   0  0  0  0  0  0
    9.2805  -29.2841   -0.1668 C   0  0  0  0  0  0
    9.8693  -28.0373   -0.2683 C   0  0  0  0  0  0
   10.3136  -27.8354   -1.5317 N   0  0  0  0  0  0
    9.9792  -28.9766   -2.1726 C   0  0  0  0  0  0
    9.2943  -26.4371   -4.2025 C   0  0  0  0  0  0
    9.0210  -25.0672   -3.5817 C   0  0  0  0  0  0
   10.0492  -24.1114   -4.0160 N   0  0  0  0  0  0
    9.6629  -22.8712   -4.6437 C   0  0  0  0  0  0
    8.6149  -22.8316   -5.3465 O   0  0  0  0  0  0
   10.4517  -21.5943   -4.4249 C   0  0  0  0  0  0
   11.8874  -21.7225   -4.9419 C   0  0  0  0  0  0
   11.9291  -21.0450   -6.3125 C   0  0  0  0  0  0
   10.5631  -20.4061   -6.5440 C   0  0  0  0  0  0
    9.8436  -20.4328   -5.2054 C   0  0  0  0  0  0
   10.7353  -34.8598   -2.2040 H   0  0  0  0  0  0
  1  2  1  0  0  0
  1  3  1  0  0  0
  3  4  1  0  0  0
  4  5  1  0  0  0
  5  6  1  0  0  0
  6  7  2  0  0  0
  7  8  1  0  0  0
  7  9  1  0  0  0
  9 10  1  0  0  0
 10 11  2  0  0  0
 11 12  1  0  0  0
 11 13  1  0  0  0
 13 14  2  0  0  0
 14 15  1  0  0  0
 15 16  2  0  0  0
 16 17  1  0  0  0
 16 18  1  0  0  0
 18 19  2  0  0  0
  9 20  2  0  0  0
 20 21  1  0  0  0
 21 22  1  0  0  0
 22 23  2  0  0  0
 23 24  1  0  0  0
 24 25  2  0  0  0
  4 26  1  0  0  0
 26 27  1  0  0  0
 27 28  1  0  0  0
 28 29  1  0  0  0
 29 30  2  0  0  0
 29 31  1  0  0  0
 31 32  1  0  0  0
 32 33  1  0  0  0
 33 34  1  0  0  0
 34 35  1  0  0  0
 28  1  1  0  0  0
 35 31  1  0  0  0
 25  6  1  0  0  0
 19 13  1  0  0  0
 25 21  1  0  0  0
 12 36  1  0  0  0
M  END
>  <CHROM.0>
-155.05591051,57.97493163,-171.94153842,62.76141165,-173.17364198

>  <CHROM.1>
164.85745853,151.17361856,113.59469078,-179.08891344,-6.66318898,62.32931026
9.66712416,-28.81098934,-3.81996556,-0.96033907,1.26060430,2.50150211

>  <RI>
0

>  <Rbt.Current_Directory>
/extra/banzai2/j5wagner/CELPP/2016_10_17_rdock_implementation/normal_run/tutorialVideo/tutorial_rdock_implementation/full_week_run/4-docking/5m96/SMCSS_4wlb_docking

>  <Rbt.Executable>
rbdock ($Id: //depot/dev/client3/rdock/2013.1/src/exe/rbdock.cxx#4 $)

>  <Rbt.Library>
libRbt.so (2013.1, Build901 2013/11/27)

>  <Rbt.Parameter_File>
/home/j5wagner/env_00/source/rDock/rDock_2013.1_src//data/scripts/dock.prm

>  <Rbt.Receptor>
/extra/banzai2/j5wagner/CELPP/2016_10_17_rdock_implementation/normal_run/tutorialVideo/tutorial_rdock_implementation/full_week_run/4-docking/5m96/SMCSS_4wlb_tech_prep/rDockGridGenInput.prm

>  <SCORE>
-22.5409

>  <SCORE.INTER>
-15.4447

>  <SCORE.INTER.CONST>
1

>  <SCORE.INTER.POLAR>
-0.142273

>  <SCORE.INTER.REPUL>
0

>  <SCORE.INTER.ROT>
5

>  <SCORE.INTER.VDW>
-25.361

>  <SCORE.INTER.norm>
-0.441277

>  <SCORE.INTRA>
2.0817

>  <SCORE.INTRA.DIHEDRAL>
-2.48619

>  <SCORE.INTRA.DIHEDRAL.0>
9.74364

>  <SCORE.INTRA.POLAR>
0

>  <SCORE.INTRA.POLAR.0>
0

>  <SCORE.INTRA.REPUL>
0.395064

>  <SCORE.INTRA.REPUL.0>
0.108387

>  <SCORE.INTRA.VDW>
1.34948

>  <SCORE.INTRA.VDW.0>
-2.87247

>  <SCORE.INTRA.norm>
0.0594772

>  <SCORE.RESTR>
0

>  <SCORE.RESTR.CAVITY>
0

>  <SCORE.RESTR.norm>
0

>  <SCORE.SYSTEM>
-9.17787

>  <SCORE.SYSTEM.CONST>
0

>  <SCORE.SYSTEM.DIHEDRAL>
1.08542

>  <SCORE.SYSTEM.POLAR>
-2.67712

>  <SCORE.SYSTEM.VDW>
-0.618375

>  <SCORE.SYSTEM.norm>
-0.262225

>  <SCORE.heavy>
35

>  <SCORE.norm>
-0.644025

$$$$

  rDOCK(R)          3D
libRbt.so/2013.1/901 2013/11/27
 36 40  0  0  0  0  0  0  0  0999 V2000
   12.1869  -27.6334   -1.6474 C   0  0  0  0  0  0
   11.2311  -27.3210   -0.4892 C   0  0  0  0  0  0
   11.4859  -28.4490   -2.7485 C   0  0  0  0  0  0
   10.5002  -27.6166   -3.4706 N   0  0  0  0  0  0
    9.7691  -28.4393   -4.4561 C   0  0  0  0  0  0
    8.8671  -29.4403   -3.7585 C   0  0  0  0  0  0
    8.6947  -30.7866   -4.2003 C   0  0  0  0  0  0
    9.3983  -31.2780   -5.4447 C   0  0  0  0  0  0
    7.8806  -31.6789   -3.4427 C   0  0  0  0  0  0
    7.7119  -33.0415   -3.8722 N   0  0  0  0  0  0
    8.4918  -34.0440   -3.5866 C   0  0  0  0  0  0
    9.6655  -33.8346   -2.8574 O   0  0  0  0  0  0
    8.1465  -35.3953   -4.0928 C   0  0  0  0  0  0
    8.9375  -36.5159   -3.7968 C   0  0  0  0  0  0
    8.6009  -37.7374   -4.2856 N   0  0  0  0  0  0
    7.4941  -37.9058   -5.0561 C   0  0  0  0  0  0
    7.1732  -39.2495   -5.6202 C   0  0  0  0  0  0
    6.7105  -36.8381   -5.3557 N   0  0  0  0  0  0
    7.0081  -35.5978   -4.8905 C   0  0  0  0  0  0
    7.1890  -31.1902   -2.3172 C   0  0  0  0  0  0
    7.3672  -29.8985   -1.9586 N   0  0  0  0  0  0
    6.8333  -29.2140   -0.9383 C   0  0  0  0  0  0
    7.3374  -27.9282   -1.0035 C   0  0  0  0  0  0
    8.1788  -27.8126   -2.0584 N   0  0  0  0  0  0
    8.1638  -29.0440   -2.6136 C   0  0  0  0  0  0
   11.1839  -26.4849   -4.1321 C   0  0  0  0  0  0
   11.8371  -25.5860   -3.0823 C   0  0  0  0  0  0
   12.7199  -26.3870   -2.2229 N   0  0  0  0  0  0
   14.1027  -26.0106   -2.0581 C   0  0  0  0  0  0
   14.7099  -25.4462   -3.0103 O   0  0  0  0  0  0
   14.8276  -26.2172   -0.7419 C   0  0  0  0  0  0
   16.3463  -26.2550   -0.9340 C   0  0  0  0  0  0
   16.8774  -24.8717   -0.5549 C   0  0  0  0  0  0
   15.6991  -24.0656   -0.0168 C   0  0  0  0  0  0
   14.5702  -25.0567    0.2147 C   0  0  0  0  0  0
   10.3083  -34.5824   -2.6325 H   0  0  0  0  0  0
  1  2  1  0  0  0
  1  3  1  0  0  0
  3  4  1  0  0  0
  4  5  1  0  0  0
  5  6  1  0  0  0
  6  7  2  0  0  0
  7  8  1  0  0  0
  7  9  1  0  0  0
  9 10  1  0  0  0
 10 11  2  0  0  0
 11 12  1  0  0  0
 11 13  1  0  0  0
 13 14  2  0  0  0
 14 15  1  0  0  0
 15 16  2  0  0  0
 16 17  1  0  0  0
 16 18  1  0  0  0
 18 19  2  0  0  0
  9 20  2  0  0  0
 20 21  1  0  0  0
 21 22  1  0  0  0
 22 23  2  0  0  0
 23 24  1  0  0  0
 24 25  2  0  0  0
  4 26  1  0  0  0
 26 27  1  0  0  0
 27 28  1  0  0  0
 28 29  1  0  0  0
 29 30  2  0  0  0
 29 31  1  0  0  0
 31 32  1  0  0  0
 32 33  1  0  0  0
 33 34  1  0  0  0
 34 35  1  0  0  0
 28  1  1  0  0  0
 35 31  1  0  0  0
 25  6  1  0  0  0
 19 13  1  0  0  0
 25 21  1  0  0  0
 12 36  1  0  0  0
M  END
>  <CHROM.0>
5.65435970,60.47637639,-173.84754980,-61.86119178,-172.54609265

>  <CHROM.1>
68.56349283,-139.81943286,86.61640544,-178.61791391,-178.87178136,158.45954648
10.29404707,-30.07920975,-2.86290562,-1.03172685,0.05005979,-2.88117098

>  <RI>
0

>  <Rbt.Current_Directory>
/extra/banzai2/j5wagner/CELPP/2016_10_17_rdock_implementation/normal_run/tutorialVideo/tutorial_rdock_implementation/full_week_run/4-docking/5m96/SMCSS_4wlb_docking

>  <Rbt.Executable>
rbdock ($Id: //depot/dev/client3/rdock/2013.1/src/exe/rbdock.cxx#4 $)

>  <Rbt.Library>
libRbt.so (2013.1, Build901 2013/11/27)

>  <Rbt.Parameter_File>
/home/j5wagner/env_00/source/rDock/rDock_2013.1_src//data/scripts/dock.prm

>  <Rbt.Receptor>
/extra/banzai2/j5wagner/CELPP/2016_10_17_rdock_implementation/normal_run/tutorialVideo/tutorial_rdock_implementation/full_week_run/4-docking/5m96/SMCSS_4wlb_tech_prep/rDockGridGenInput.prm

>  <SCORE>
-22.512

>  <SCORE.INTER>
-16.7191

>  <SCORE.INTER.CONST>
1

>  <SCORE.INTER.POLAR>
0

>  <SCORE.INTER.REPUL>
0.00499876

>  <SCORE.INTER.ROT>
5

>  <SCORE.INTER.VDW>
-27.1441

>  <SCORE.INTER.norm>
-0.477688

>  <SCORE.INTRA>
0.761956

>  <SCORE.INTRA.DIHEDRAL>
-0.729359

>  <SCORE.INTRA.DIHEDRAL.0>
9.74364

>  <SCORE.INTRA.POLAR>
0

>  <SCORE.INTRA.POLAR.0>
0

>  <SCORE.INTRA.REPUL>
0.240755

>  <SCORE.INTRA.REPUL.0>
0.108387

>  <SCORE.INTRA.VDW>
-0.0771367

>  <SCORE.INTRA.VDW.0>
-2.87247

>  <SCORE.INTRA.norm>
0.0217702

>  <SCORE.RESTR>
0

>  <SCORE.RESTR.CAVITY>
0

>  <SCORE.RESTR.norm>
0

>  <SCORE.SYSTEM>
-6.55489

>  <SCORE.SYSTEM.CONST>
0

>  <SCORE.SYSTEM.DIHEDRAL>
0.212757

>  <SCORE.SYSTEM.POLAR>
-1.89525

>  <SCORE.SYSTEM.VDW>
-0.217434

>  <SCORE.SYSTEM.norm>
-0.187283

>  <SCORE.heavy>
35

>  <SCORE.norm>
-0.6432

$$$$

  rDOCK(R)          3D
libRbt.so/2013.1/901 2013/11/27
 36 40  0  0  0  0  0  0  0  0999 V2000
   11.4337  -24.6313   -4.8469 C   0  0  0  0  0  0
   12.5862  -25.2902   -4.0787 C   0  0  0  0  0  0
   10.4017  -25.6740   -5.3127 C   0  0  0  0  0  0
    9.6447  -26.2125   -4.1625 N   0  0  0  0  0  0
    8.7290  -27.2799   -4.6152 C   0  0  0  0  0  0
    8.8569  -28.5084   -3.7339 C   0  0  0  0  0  0
    8.5483  -29.8302   -4.1758 C   0  0  0  0  0  0
    8.0287  -30.0655   -5.5757 C   0  0  0  0  0  0
    8.7643  -30.9350   -3.3008 C   0  0  0  0  0  0
    8.4695  -32.2722   -3.7418 N   0  0  0  0  0  0
    9.0634  -33.3631   -3.3519 C   0  0  0  0  0  0
   10.1509  -33.2959   -2.4767 O   0  0  0  0  0  0
    8.6065  -34.6673   -3.8920 C   0  0  0  0  0  0
    7.5342  -34.7554   -4.7929 C   0  0  0  0  0  0
    7.1323  -35.9657   -5.2596 N   0  0  0  0  0  0
    7.7598  -37.1097   -4.8792 C   0  0  0  0  0  0
    7.2681  -38.4306   -5.3691 C   0  0  0  0  0  0
    8.8015  -37.0521   -4.0100 N   0  0  0  0  0  0
    9.2374  -35.8648   -3.5162 C   0  0  0  0  0  0
    9.1966  -30.6929   -1.9823 C   0  0  0  0  0  0
    9.4482  -29.4182   -1.6075 N   0  0  0  0  0  0
    9.8693  -28.9421   -0.4282 C   0  0  0  0  0  0
    9.9778  -27.5700   -0.5592 C   0  0  0  0  0  0
    9.6253  -27.1941   -1.8116 N   0  0  0  0  0  0
    9.3076  -28.3597   -2.4160 C   0  0  0  0  0  0
    8.8976  -25.1244   -3.4964 C   0  0  0  0  0  0
    9.8738  -24.0892   -2.9376 C   0  0  0  0  0  0
   10.7677  -23.6221   -4.0063 N   0  0  0  0  0  0
   10.8819  -22.2117   -4.2869 C   0  0  0  0  0  0
    9.8837  -21.4602   -4.1063 O   0  0  0  0  0  0
   12.1954  -21.5972   -4.7318 C   0  0  0  0  0  0
   12.6480  -22.1521   -6.0853 C   0  0  0  0  0  0
   12.2610  -21.1169   -7.1426 C   0  0  0  0  0  0
   11.7047  -19.9025   -6.4056 C   0  0  0  0  0  0
   12.0551  -20.0921   -4.9388 C   0  0  0  0  0  0
   10.6476  -34.1181   -2.1601 H   0  0  0  0  0  0
  1  2  1  0  0  0
  1  3  1  0  0  0
  3  4  1  0  0  0
  4  5  1  0  0  0
  5  6  1  0  0  0
  6  7  2  0  0  0
  7  8  1  0  0  0
  7  9  1  0  0  0
  9 10  1  0  0  0
 10 11  2  0  0  0
 11 12  1  0  0  0
 11 13  1  0  0  0
 13 14  2  0  0  0
 14 15  1  0  0  0
 15 16  2  0  0  0
 16 17  1  0  0  0
 16 18  1  0  0  0
 18 19  2  0  0  0
  9 20  2  0  0  0
 20 21  1  0  0  0
 21 22  1  0  0  0
 22 23  2  0  0  0
 23 24  1  0  0  0
 24 25  2  0  0  0
  4 26  1  0  0  0
 26 27  1  0  0  0
 27 28  1  0  0  0
 28 29  1  0  0  0
 29 30  2  0  0  0
 29 31  1  0  0  0
 31 32  1  0  0  0
 32 33  1  0  0  0
 33 34  1  0  0  0
 34 35  1  0  0  0
 28  1  1  0  0  0
 35 31  1  0  0  0
 25  6  1  0  0  0
 19 13  1  0  0  0
 25 21  1  0  0  0
 12 36  1  0  0  0
M  END
>  <CHROM.0>
-156.10429039,62.42413353,-178.28888915,66.31198764,-176.21798134

>  <CHROM.1>
131.50517626,-154.21001068,150.27674353,-179.12758880,-1.22355060,63.72255244
9.72685445,-28.35686982,-3.96224989,-0.04105396,-1.34194373,-1.67568272

>  <RI>
0

>  <Rbt.Current_Directory>
/extra/banzai2/j5wagner/CELPP/2016_10_17_rdock_implementation/normal_run/tutorialVideo/tutorial_rdock_implementation/full_week_run/4-docking/5m96/SMCSS_4wlb_docking

>  <Rbt.Executable>
rbdock ($Id: //depot/dev/client3/rdock/2013.1/src/exe/rbdock.cxx#4 $)

>  <Rbt.Library>
libRbt.so (2013.1, Build901 2013/11/27)

>  <Rbt.Parameter_File>
/home/j5wagner/env_00/source/rDock/rDock_2013.1_src//data/scripts/dock.prm

>  <Rbt.Receptor>
/extra/banzai2/j5wagner/CELPP/2016_10_17_rdock_implementation/normal_run/tutorialVideo/tutorial_rdock_implementation/full_week_run/4-docking/5m96/SMCSS_4wlb_tech_prep/rDockGridGenInput.prm

>  <SCORE>
-22.5091

>  <SCORE.INTER>
-14.5293

>  <SCORE.INTER.CONST>
1

>  <SCORE.INTER.POLAR>
0

>  <SCORE.INTER.REPUL>
0

>  <SCORE.INTER.ROT>
5

>  <SCORE.INTER.VDW>
-24.9293

>  <SCORE.INTER.norm>
-0.415124

>  <SCORE.INTRA>
1.22555

>  <SCORE.INTRA.DIHEDRAL>
-4.54284

>  <SCORE.INTRA.DIHEDRAL.0>
9.74364

>  <SCORE.INTRA.POLAR>
0

>  <SCORE.INTRA.POLAR.0>
0

>  <SCORE.INTRA.REPUL>
0.220541

>  <SCORE.INTRA.REPUL.0>
0.108387

>  <SCORE.INTRA.VDW>
2.39426

>  <SCORE.INTRA.VDW.0>
-2.87247

>  <SCORE.INTRA.norm>
0.0350157

>  <SCORE.RESTR>
0

>  <SCORE.RESTR.CAVITY>
0

>  <SCORE.RESTR.norm>
0

>  <SCORE.SYSTEM>
-9.20528

>  <SCORE.SYSTEM.CONST>
0

>  <SCORE.SYSTEM.DIHEDRAL>
1.05471

>  <SCORE.SYSTEM.POLAR>
-2.63462

>  <SCORE.SYSTEM.VDW>
-0.774946

>  <SCORE.SYSTEM.norm>
-0.263008

>  <SCORE.heavy>
35

>  <SCORE.norm>
-0.643116

$$$$

  rDOCK(R)          3D
libRbt.so/2013.1/901 2013/11/27
 36 40  0  0  0  0  0  0  0  0999 V2000
    8.1663  -32.9649   -4.6773 C   0  0  0  0  0  0
    6.8504  -32.5201   -4.0269 C   0  0  0  0  0  0
    9.2434  -31.8707   -4.5691 C   0  0  0  0  0  0
    9.7050  -31.7256   -3.1720 N   0  0  0  0  0  0
   10.6650  -30.6072   -3.0704 C   0  0  0  0  0  0
    9.9378  -29.2765   -3.0187 C   0  0  0  0  0  0
   10.3474  -28.1261   -3.7578 C   0  0  0  0  0  0
   11.5855  -28.1756   -4.6236 C   0  0  0  0  0  0
    9.5634  -26.9364   -3.7028 C   0  0  0  0  0  0
    9.9604  -25.7762   -4.4551 N   0  0  0  0  0  0
   10.1227  -24.5714   -3.9892 C   0  0  0  0  0  0
    9.8290  -24.2904   -2.6521 O   0  0  0  0  0  0
   10.5678  -23.4950   -4.9084 C   0  0  0  0  0  0
   10.8052  -22.1895   -4.4519 C   0  0  0  0  0  0
   11.2002  -21.2237   -5.3211 N   0  0  0  0  0  0
   11.3852  -21.4971   -6.6395 C   0  0  0  0  0  0
   11.7729  -20.4071   -7.5819 C   0  0  0  0  0  0
   11.1642  -22.7528   -7.1066 N   0  0  0  0  0  0
   10.7673  -23.7502   -6.2753 C   0  0  0  0  0  0
    8.4443  -26.8899   -2.8489 C   0  0  0  0  0  0
    8.1167  -28.0003   -2.1502 N   0  0  0  0  0  0
    7.1084  -28.2028   -1.2918 C   0  0  0  0  0  0
    7.2068  -29.5093   -0.8500 C   0  0  0  0  0  0
    8.2704  -30.1159   -1.4287 N   0  0  0  0  0  0
    8.7971  -29.1522   -2.2152 C   0  0  0  0  0  0
   10.3168  -32.9893   -2.7091 C   0  0  0  0  0  0
    9.2729  -34.1061   -2.7162 C   0  0  0  0  0  0
    8.6575  -34.2020   -4.0471 N   0  0  0  0  0  0
    8.6537  -35.4608   -4.7517 C   0  0  0  0  0  0
    9.6088  -36.2690   -4.5834 O   0  0  0  0  0  0
    7.4940  -35.8662   -5.6413 C   0  0  0  0  0  0
    7.7960  -37.1562   -6.4092 C   0  0  0  0  0  0
    7.1021  -38.2939   -5.6585 C   0  0  0  0  0  0
    6.2877  -37.6636   -4.5328 C   0  0  0  0  0  0
    6.2483  -36.1705   -4.8146 C   0  0  0  0  0  0
    9.5473  -25.0049   -1.9940 H   0  0  0  0  0  0
  1  2  1  0  0  0
  1  3  1  0  0  0
  3  4  1  0  0  0
  4  5  1  0  0  0
  5  6  1  0  0  0
  6  7  2  0  0  0
  7  8  1  0  0  0
  7  9  1  0  0  0
  9 10  1  0  0  0
 10 11  2  0  0  0
 11 12  1  0  0  0
 11 13  1  0  0  0
 13 14  2  0  0  0
 14 15  1  0  0  0
 15 16  2  0  0  0
 16 17  1  0  0  0
 16 18  1  0  0  0
 18 19  2  0  0  0
  9 20  2  0  0  0
 20 21  1  0  0  0
 21 22  1  0  0  0
 22 23  2  0  0  0
 23 24  1  0  0  0
 24 25  2  0  0  0
  4 26  1  0  0  0
 26 27  1  0  0  0
 27 28  1  0  0  0
 28 29  1  0  0  0
 29 30  2  0  0  0
 29 31  1  0  0  0
 31 32  1  0  0  0
 32 33  1  0  0  0
 33 34  1  0  0  0
 34 35  1  0  0  0
 28  1  1  0  0  0
 35 31  1  0  0  0
 25  6  1  0  0  0
 19 13  1  0  0  0
 25 21  1  0  0  0
 12 36  1  0  0  0
M  END
>  <CHROM.0>
8.77068631,60.60580577,4.50025976,69.94375002,-173.99874911

>  <CHROM.1>
79.98341727,-136.45215103,-127.08575728,4.22464105,-177.68465988,173.03988867
9.22542296,-29.56230075,-4.13866124,-2.18924600,1.18210674,0.53066394

>  <RI>
0

>  <Rbt.Current_Directory>
/extra/banzai2/j5wagner/CELPP/2016_10_17_rdock_implementation/normal_run/tutorialVideo/tutorial_rdock_implementation/full_week_run/4-docking/5m96/SMCSS_4wlb_docking

>  <Rbt.Executable>
rbdock ($Id: //depot/dev/client3/rdock/2013.1/src/exe/rbdock.cxx#4 $)

>  <Rbt.Library>
libRbt.so (2013.1, Build901 2013/11/27)

>  <Rbt.Parameter_File>
/home/j5wagner/env_00/source/rDock/rDock_2013.1_src//data/scripts/dock.prm

>  <Rbt.Receptor>
/extra/banzai2/j5wagner/CELPP/2016_10_17_rdock_implementation/normal_run/tutorialVideo/tutorial_rdock_implementation/full_week_run/4-docking/5m96/SMCSS_4wlb_tech_prep/rDockGridGenInput.prm

>  <SCORE>
-22.4605

>  <SCORE.INTER>
-15.5801

>  <SCORE.INTER.CONST>
1

>  <SCORE.INTER.POLAR>
-0.186156

>  <SCORE.INTER.REPUL>
0

>  <SCORE.INTER.ROT>
5

>  <SCORE.INTER.VDW>
-25.3472

>  <SCORE.INTER.norm>
-0.445147

>  <SCORE.INTRA>
0.0516792

>  <SCORE.INTRA.DIHEDRAL>
-3.57029

>  <SCORE.INTRA.DIHEDRAL.0>
9.74364

>  <SCORE.INTRA.POLAR>
0

>  <SCORE.INTRA.POLAR.0>
0

>  <SCORE.INTRA.REPUL>
0.200608

>  <SCORE.INTRA.REPUL.0>
0.108387

>  <SCORE.INTRA.VDW>
0.833784

>  <SCORE.INTRA.VDW.0>
-2.87247

>  <SCORE.INTRA.norm>
0.00147655

>  <SCORE.RESTR>
0

>  <SCORE.RESTR.CAVITY>
0

>  <SCORE.RESTR.norm>
0

>  <SCORE.SYSTEM>
-6.93202

>  <SCORE.SYSTEM.CONST>
0

>  <SCORE.SYSTEM.DIHEDRAL>
0.686331

>  <SCORE.SYSTEM.POLAR>
-1.9299

>  <SCORE.SYSTEM.VDW>
-0.713533

>  <SCORE.SYSTEM.norm>
-0.198058

>  <SCORE.heavy>
35

>  <SCORE.norm>
-0.641728

$$$$

  rDOCK(R)          3D
libRbt.so/2013.1/901 2013/11/27
 36 40  0  0  0  0  0  0  0  0999 V2000
   11.7576  -24.5867   -4.0412 C   0  0  0  0  0  0
   12.5129  -24.5789   -2.7062 C   0  0  0  0  0  0
   11.7392  -25.9929   -4.6669 C   0  0  0  0  0  0
   10.8650  -26.8998   -3.8928 N   0  0  0  0  0  0
   10.9357  -28.2667   -4.4490 C   0  0  0  0  0  0
   10.1991  -29.2493   -3.5579 C   0  0  0  0  0  0
    9.6856  -30.4987   -4.0191 C   0  0  0  0  0  0
    9.8263  -30.8927   -5.4717 C   0  0  0  0  0  0
    9.0672  -31.3915   -3.0953 C   0  0  0  0  0  0
    8.5591  -32.6590   -3.5478 N   0  0  0  0  0  0
    9.0910  -33.8272   -3.3300 C   0  0  0  0  0  0
   10.3141  -33.9279   -2.6615 O   0  0  0  0  0  0
    8.4105  -35.0392   -3.8491 C   0  0  0  0  0  0
    8.9914  -36.3120   -3.7411 C   0  0  0  0  0  0
    8.3482  -37.4003   -4.2374 N   0  0  0  0  0  0
    7.1327  -37.2869   -4.8346 C   0  0  0  0  0  0
    6.4692  -38.4913   -5.4142 C   0  0  0  0  0  0
    6.5477  -36.0670   -4.9502 N   0  0  0  0  0  0
    7.1536  -34.9509   -4.4701 C   0  0  0  0  0  0
    8.8955  -30.9856   -1.7575 C   0  0  0  0  0  0
    9.3769  -29.7796   -1.3802 N   0  0  0  0  0  0
    9.3429  -29.1836   -0.1810 C   0  0  0  0  0  0
    9.9760  -27.9619   -0.3161 C   0  0  0  0  0  0
   10.4003  -27.7978   -1.5917 N   0  0  0  0  0  0
   10.0096  -28.9358   -2.2058 C   0  0  0  0  0  0
    9.4753  -26.3956   -3.9082 C   0  0  0  0  0  0
    9.4098  -25.0293   -3.2258 C   0  0  0  0  0  0
   10.3755  -24.1152   -3.8513 N   0  0  0  0  0  0
    9.9345  -22.8426   -4.3683 C   0  0  0  0  0  0
    8.7675  -22.7342   -4.8375 O   0  0  0  0  0  0
   10.8185  -21.6119   -4.3010 C   0  0  0  0  0  0
   12.1113  -21.8015   -5.0996 C   0  0  0  0  0  0
   11.9116  -21.0986   -6.4432 C   0  0  0  0  0  0
   10.5632  -20.3870   -6.3864 C   0  0  0  0  0  0
   10.1284  -20.4052   -4.9301 C   0  0  0  0  0  0
   10.8171  -33.1194   -2.3203 H   0  0  0  0  0  0
  1  2  1  0  0  0
  1  3  1  0  0  0
  3  4  1  0  0  0
  4  5  1  0  0  0
  5  6  1  0  0  0
  6  7  2  0  0  0
  7  8  1  0  0  0
  7  9  1  0  0  0
  9 10  1  0  0  0
 10 11  2  0  0  0
 11 12  1  0  0  0
 11 13  1  0  0  0
 13 14  2  0  0  0
 14 15  1  0  0  0
 15 16  2  0  0  0
 16 17  1  0  0  0
 16 18  1  0  0  0
 18 19  2  0  0  0
  9 20  2  0  0  0
 20 21  1  0  0  0
 21 22  1  0  0  0
 22 23  2  0  0  0
 23 24  1  0  0  0
 24 25  2  0  0  0
  4 26  1  0  0  0
 26 27  1  0  0  0
 27 28  1  0  0  0
 28 29  1  0  0  0
 29 30  2  0  0  0
 29 31  1  0  0  0
 31 32  1  0  0  0
 32 33  1  0  0  0
 33 34  1  0  0  0
 34 35  1  0  0  0
 28  1  1  0  0  0
 35 31  1  0  0  0
 25  6  1  0  0  0
 19 13  1  0  0  0
 25 21  1  0  0  0
 12 36  1  0  0  0
M  END
>  <CHROM.0>
-155.23264286,61.15654018,5.64402639,179.07173388,-174.56458500

>  <CHROM.1>
172.20185663,157.13506847,106.31557543,0.65383456,174.66988592,61.97982563
9.70815811,-28.77395595,-3.78481061,-0.87400858,1.23973886,2.42719619

>  <RI>
0

>  <Rbt.Current_Directory>
/extra/banzai2/j5wagner/CELPP/2016_10_17_rdock_implementation/normal_run/tutorialVideo/tutorial_rdock_implementation/full_week_run/4-docking/5m96/SMCSS_4wlb_docking

>  <Rbt.Executable>
rbdock ($Id: //depot/dev/client3/rdock/2013.1/src/exe/rbdock.cxx#4 $)

>  <Rbt.Library>
libRbt.so (2013.1, Build901 2013/11/27)

>  <Rbt.Parameter_File>
/home/j5wagner/env_00/source/rDock/rDock_2013.1_src//data/scripts/dock.prm

>  <Rbt.Receptor>
/extra/banzai2/j5wagner/CELPP/2016_10_17_rdock_implementation/normal_run/tutorialVideo/tutorial_rdock_implementation/full_week_run/4-docking/5m96/SMCSS_4wlb_tech_prep/rDockGridGenInput.prm

>  <SCORE>
-22.4251

>  <SCORE.INTER>
-15.8033

>  <SCORE.INTER.CONST>
1

>  <SCORE.INTER.POLAR>
-0.491782

>  <SCORE.INTER.REPUL>
0

>  <SCORE.INTER.ROT>
5

>  <SCORE.INTER.VDW>
-24.5313

>  <SCORE.INTER.norm>
-0.451524

>  <SCORE.INTRA>
2.75348

>  <SCORE.INTRA.DIHEDRAL>
-2.29235

>  <SCORE.INTRA.DIHEDRAL.0>
9.74364

>  <SCORE.INTRA.POLAR>
0

>  <SCORE.INTRA.POLAR.0>
0

>  <SCORE.INTRA.REPUL>
0.3668

>  <SCORE.INTRA.REPUL.0>
0.108387

>  <SCORE.INTRA.VDW>
2.06566

>  <SCORE.INTRA.VDW.0>
-2.87247

>  <SCORE.INTRA.norm>
0.0786709

>  <SCORE.RESTR>
0.00979099

>  <SCORE.RESTR.CAVITY>
0.00979099

>  <SCORE.RESTR.norm>
0.000279743

>  <SCORE.SYSTEM>
-9.38509

>  <SCORE.SYSTEM.CONST>
0

>  <SCORE.SYSTEM.DIHEDRAL>
0.956923

>  <SCORE.SYSTEM.POLAR>
-2.64204

>  <SCORE.SYSTEM.VDW>
-0.880623

>  <SCORE.SYSTEM.norm>
-0.268145

>  <SCORE.heavy>
35

>  <SCORE.norm>
-0.640718

$$$$

  rDOCK(R)          3D
libRbt.so/2013.1/901 2013/11/27
 36 40  0  0  0  0  0  0  0  0999 V2000
   10.4580  -28.4403   -3.6463 C   0  0  0  0  0  0
   11.3361  -29.6954   -3.7248 C   0  0  0  0  0  0
    8.9796  -28.8034   -3.4193 C   0  0  0  0  0  0
    8.7719  -29.3257   -2.0518 N   0  0  0  0  0  0
    7.3697  -29.7597   -1.8840 C   0  0  0  0  0  0
    7.3056  -31.1707   -1.3297 C   0  0  0  0  0  0
    7.2282  -32.3363   -2.1501 C   0  0  0  0  0  0
    7.1678  -32.2082   -3.6551 C   0  0  0  0  0  0
    7.2420  -33.6272   -1.5447 C   0  0  0  0  0  0
    7.1785  -34.8081   -2.3638 N   0  0  0  0  0  0
    8.1910  -35.4860   -2.8223 C   0  0  0  0  0  0
    9.4955  -35.0378   -2.5971 O   0  0  0  0  0  0
    7.9385  -36.7040   -3.6311 C   0  0  0  0  0  0
    8.8983  -37.7209   -3.7486 C   0  0  0  0  0  0
    8.6412  -38.8180   -4.5067 N   0  0  0  0  0  0
    7.4552  -38.9628   -5.1544 C   0  0  0  0  0  0
    7.2165  -40.1550   -6.0194 C   0  0  0  0  0  0
    6.5086  -37.9943   -5.0556 N   0  0  0  0  0  0
    6.7215  -36.8796   -4.3103 C   0  0  0  0  0  0
    7.2432  -33.7272   -0.1398 C   0  0  0  0  0  0
    7.2894  -32.5897    0.5900 N   0  0  0  0  0  0
    7.3068  -32.4283    1.9198 C   0  0  0  0  0  0
    7.3620  -31.0684    2.1635 C   0  0  0  0  0  0
    7.3777  -30.3875    0.9929 N   0  0  0  0  0  0
    7.3304  -31.3613    0.0579 C   0  0  0  0  0  0
    9.1261  -28.2906   -1.0574 C   0  0  0  0  0  0
   10.6093  -27.9405   -1.1764 C   0  0  0  0  0  0
   10.9196  -27.5583   -2.5610 N   0  0  0  0  0  0
   11.5522  -26.2912   -2.8357 C   0  0  0  0  0  0
   11.3148  -25.3037   -2.0860 O   0  0  0  0  0  0
   12.5499  -26.1338   -3.9674 C   0  0  0  0  0  0
   11.8605  -26.1572   -5.3345 C   0  0  0  0  0  0
   11.7182  -24.7029   -5.7862 C   0  0  0  0  0  0
   12.4364  -23.8361   -4.7564 C   0  0  0  0  0  0
   13.2549  -24.7827   -3.8936 C   0  0  0  0  0  0
   10.3086  -35.5330   -2.9386 H   0  0  0  0  0  0
  1  2  1  0  0  0
  1  3  1  0  0  0
  3  4  1  0  0  0
  4  5  1  0  0  0
  5  6  1  0  0  0
  6  7  2  0  0  0
  7  8  1  0  0  0
  7  9  1  0  0  0
  9 10  1  0  0  0
 10 11  2  0  0  0
 11 12  1  0  0  0
 11 13  1  0  0  0
 13 14  2  0  0  0
 14 15  1  0  0  0
 15 16  2  0  0  0
 16 17  1  0  0  0
 16 18  1  0  0  0
 18 19  2  0  0  0
  9 20  2  0  0  0
 20 21  1  0  0  0
 21 22  1  0  0  0
 22 23  2  0  0  0
 23 24  1  0  0  0
 24 25  2  0  0  0
  4 26  1  0  0  0
 26 27  1  0  0  0
 27 28  1  0  0  0
 28 29  1  0  0  0
 29 30  2  0  0  0
 29 31  1  0  0  0
 31 32  1  0  0  0
 32 33  1  0  0  0
 33 34  1  0  0  0
 34 35  1  0  0  0
 28  1  1  0  0  0
 35 31  1  0  0  0
 25  6  1  0  0  0
 19 13  1  0  0  0
 25 21  1  0  0  0
 12 36  1  0  0  0
M  END
>  <CHROM.0>
-156.97293676,59.43177157,-168.96074985,67.09217601,-172.15154870

>  <CHROM.1>
128.83445050,-92.22405772,92.62958739,-179.78890498,-156.76722214,72.91136033
9.00156795,-31.38229076,-2.64449633,-0.88928432,-1.01096687,-2.52022761

>  <RI>
0

>  <Rbt.Current_Directory>
/extra/banzai2/j5wagner/CELPP/2016_10_17_rdock_implementation/normal_run/tutorialVideo/tutorial_rdock_implementation/full_week_run/4-docking/5m96/SMCSS_4wlb_docking

>  <Rbt.Executable>
rbdock ($Id: //depot/dev/client3/rdock/2013.1/src/exe/rbdock.cxx#4 $)

>  <Rbt.Library>
libRbt.so (2013.1, Build901 2013/11/27)

>  <Rbt.Parameter_File>
/home/j5wagner/env_00/source/rDock/rDock_2013.1_src//data/scripts/dock.prm

>  <Rbt.Receptor>
/extra/banzai2/j5wagner/CELPP/2016_10_17_rdock_implementation/normal_run/tutorialVideo/tutorial_rdock_implementation/full_week_run/4-docking/5m96/SMCSS_4wlb_tech_prep/rDockGridGenInput.prm

>  <SCORE>
-21.914

>  <SCORE.INTER>
-13.6872

>  <SCORE.INTER.CONST>
1

>  <SCORE.INTER.POLAR>
0

>  <SCORE.INTER.REPUL>
0

>  <SCORE.INTER.ROT>
5

>  <SCORE.INTER.VDW>
-24.0872

>  <SCORE.INTER.norm>
-0.391062

>  <SCORE.INTRA>
0.943606

>  <SCORE.INTRA.DIHEDRAL>
2.60975

>  <SCORE.INTRA.DIHEDRAL.0>
9.74364

>  <SCORE.INTRA.POLAR>
0

>  <SCORE.INTRA.POLAR.0>
0

>  <SCORE.INTRA.REPUL>
-0.108387

>  <SCORE.INTRA.REPUL.0>
0.108387

>  <SCORE.INTRA.VDW>
0.180668

>  <SCORE.INTRA.VDW.0>
-2.87247

>  <SCORE.INTRA.norm>
0.0269602

>  <SCORE.RESTR>
0

>  <SCORE.RESTR.CAVITY>
0

>  <SCORE.RESTR.norm>
0

>  <SCORE.SYSTEM>
-9.17039

>  <SCORE.SYSTEM.CONST>
0

>  <SCORE.SYSTEM.DIHEDRAL>
1.25544

>  <SCORE.SYSTEM.POLAR>
-2.66489

>  <SCORE.SYSTEM.VDW>
-0.737486

>  <SCORE.SYSTEM.norm>
-0.262011

>  <SCORE.heavy>
35

>  <SCORE.norm>
-0.626113

$$$$

  rDOCK(R)          3D
libRbt.so/2013.1/901 2013/11/27
 36 40  0  0  0  0  0  0  0  0999 V2000
   11.1412  -24.7396   -3.9711 C   0  0  0  0  0  0
    9.6911  -24.9601   -4.4195 C   0  0  0  0  0  0
   11.7314  -26.0114   -3.3361 C   0  0  0  0  0  0
   11.9543  -27.0541   -4.3603 N   0  0  0  0  0  0
   12.4280  -28.2985   -3.7202 C   0  0  0  0  0  0
   11.2805  -29.0285   -3.0475 C   0  0  0  0  0  0
   10.5477  -30.0849   -3.6676 C   0  0  0  0  0  0
   10.8705  -30.5105   -5.0817 C   0  0  0  0  0  0
    9.5294  -30.7620   -2.9345 C   0  0  0  0  0  0
    8.7948  -31.8371   -3.5460 N   0  0  0  0  0  0
    9.1012  -33.1019   -3.5085 C   0  0  0  0  0  0
   10.2851  -33.5193   -2.8942 O   0  0  0  0  0  0
    8.2075  -34.0820   -4.1734 C   0  0  0  0  0  0
    8.5104  -35.4519   -4.2026 C   0  0  0  0  0  0
    7.6777  -36.3220   -4.8301 N   0  0  0  0  0  0
    6.5354  -35.8940   -5.4293 C   0  0  0  0  0  0
    5.6623  -36.8636   -6.1532 C   0  0  0  0  0  0
    6.2180  -34.5738   -5.4138 N   0  0  0  0  0  0
    7.0206  -33.6671   -4.7998 C   0  0  0  0  0  0
    9.2045  -30.3167   -1.6384 C   0  0  0  0  0  0
    9.9125  -29.2934   -1.1091 N   0  0  0  0  0  0
    9.7981  -28.7055    0.0892 C   0  0  0  0  0  0
   10.7586  -27.7127    0.1482 C   0  0  0  0  0  0
   11.4656  -27.6819   -1.0065 N   0  0  0  0  0  0
   10.9104  -28.6668   -1.7457 C   0  0  0  0  0  0
   12.9271  -26.5745   -5.3650 C   0  0  0  0  0  0
   12.3648  -25.3532   -6.0923 C   0  0  0  0  0  0
   11.9745  -24.3288   -5.1138 N   0  0  0  0  0  0
   12.5027  -22.9905   -5.2201 C   0  0  0  0  0  0
   13.6609  -22.8161   -5.6912 O   0  0  0  0  0  0
   11.6721  -21.7795   -4.8401 C   0  0  0  0  0  0
   12.3839  -20.4721   -5.1990 C   0  0  0  0  0  0
   11.7771  -19.9815   -6.5145 C   0  0  0  0  0  0
   10.6256  -20.9207   -6.8604 C   0  0  0  0  0  0
   10.3582  -21.7500   -5.6150 C   0  0  0  0  0  0
   10.9499  -32.8705   -2.4941 H   0  0  0  0  0  0
  1  2  1  0  0  0
  1  3  1  0  0  0
  3  4  1  0  0  0
  4  5  1  0  0  0
  5  6  1  0  0  0
  6  7  2  0  0  0
  7  8  1  0  0  0
  7  9  1  0  0  0
  9 10  1  0  0  0
 10 11  2  0  0  0
 11 12  1  0  0  0
 11 13  1  0  0  0
 13 14  2  0  0  0
 14 15  1  0  0  0
 15 16  2  0  0  0
 16 17  1  0  0  0
 16 18  1  0  0  0
 18 19  2  0  0  0
  9 20  2  0  0  0
 20 21  1  0  0  0
 21 22  1  0  0  0
 22 23  2  0  0  0
 23 24  1  0  0  0
 24 25  2  0  0  0
  4 26  1  0  0  0
 26 27  1  0  0  0
 27 28  1  0  0  0
 28 29  1  0  0  0
 29 30  2  0  0  0
 29 31  1  0  0  0
 31 32  1  0  0  0
 32 33  1  0  0  0
 33 34  1  0  0  0
 34 35  1  0  0  0
 28  1  1  0  0  0
 35 31  1  0  0  0
 25  6  1  0  0  0
 19 13  1  0  0  0
 25 21  1  0  0  0
 12 36  1  0  0  0
M  END
>  <CHROM.0>
-2.78468130,60.96010343,-0.39508742,66.11872736,176.49794728

>  <CHROM.1>
76.62367076,95.49785208,90.87481622,-2.19699189,177.88225965,-173.04400376
10.30006633,-28.40289699,-4.07259792,-0.77949822,1.10234704,2.32776193

>  <RI>
0

>  <Rbt.Current_Directory>
/extra/banzai2/j5wagner/CELPP/2016_10_17_rdock_implementation/normal_run/tutorialVideo/tutorial_rdock_implementation/full_week_run/4-docking/5m96/SMCSS_4wlb_docking

>  <Rbt.Executable>
rbdock ($Id: //depot/dev/client3/rdock/2013.1/src/exe/rbdock.cxx#4 $)

>  <Rbt.Library>
libRbt.so (2013.1, Build901 2013/11/27)

>  <Rbt.Parameter_File>
/home/j5wagner/env_00/source/rDock/rDock_2013.1_src//data/scripts/dock.prm

>  <Rbt.Receptor>
/extra/banzai2/j5wagner/CELPP/2016_10_17_rdock_implementation/normal_run/tutorialVideo/tutorial_rdock_implementation/full_week_run/4-docking/5m96/SMCSS_4wlb_tech_prep/rDockGridGenInput.prm

>  <SCORE>
-21.6968

>  <SCORE.INTER>
-13.8746

>  <SCORE.INTER.CONST>
1

>  <SCORE.INTER.POLAR>
-0.356324

>  <SCORE.INTER.REPUL>
0

>  <SCORE.INTER.ROT>
5

>  <SCORE.INTER.VDW>
-23.0631

>  <SCORE.INTER.norm>
-0.396416

>  <SCORE.INTRA>
-0.842385

>  <SCORE.INTRA.DIHEDRAL>
-1.4666

>  <SCORE.INTRA.DIHEDRAL.0>
9.74364

>  <SCORE.INTRA.POLAR>
0

>  <SCORE.INTRA.POLAR.0>
0

>  <SCORE.INTRA.REPUL>
-0.108387

>  <SCORE.INTRA.REPUL.0>
0.108387

>  <SCORE.INTRA.VDW>
0.432853

>  <SCORE.INTRA.VDW.0>
-2.87247

>  <SCORE.INTRA.norm>
-0.0240681

>  <SCORE.RESTR>
0

>  <SCORE.RESTR.CAVITY>
0

>  <SCORE.RESTR.norm>
0

>  <SCORE.SYSTEM>
-6.9799

>  <SCORE.SYSTEM.CONST>
0

>  <SCORE.SYSTEM.DIHEDRAL>
0.230793

>  <SCORE.SYSTEM.POLAR>
-1.9023

>  <SCORE.SYSTEM.VDW>
-0.627482

>  <SCORE.SYSTEM.norm>
-0.199426

>  <SCORE.heavy>
35

>  <SCORE.norm>
-0.61991

$$$$

  rDOCK(R)          3D
libRbt.so/2013.1/901 2013/11/27
 36 40  0  0  0  0  0  0  0  0999 V2000
   13.1316  -27.7017   -3.4212 C   0  0  0  0  0  0
   13.6763  -28.9424   -2.7026 C   0  0  0  0  0  0
   11.9267  -28.0534   -4.3121 C   0  0  0  0  0  0
   10.7459  -28.3897   -3.4884 N   0  0  0  0  0  0
    9.6297  -28.8184   -4.3562 C   0  0  0  0  0  0
    8.7846  -29.8722   -3.6651 C   0  0  0  0  0  0
    8.7008  -31.2275   -4.1053 C   0  0  0  0  0  0
    9.4463  -31.6765   -5.3413 C   0  0  0  0  0  0
    7.9360  -32.1673   -3.3537 C   0  0  0  0  0  0
    7.8568  -33.5385   -3.7814 N   0  0  0  0  0  0
    6.7682  -34.2194   -3.9963 C   0  0  0  0  0  0
    5.5198  -33.6478   -3.7352 O   0  0  0  0  0  0
    6.8743  -35.6227   -4.4663 C   0  0  0  0  0  0
    5.7589  -36.4733   -4.5004 C   0  0  0  0  0  0
    5.8917  -37.7566   -4.9245 N   0  0  0  0  0  0
    7.0937  -38.2410   -5.3338 C   0  0  0  0  0  0
    7.2223  -39.6683   -5.7496 C   0  0  0  0  0  0
    8.1885  -37.4380   -5.3126 N   0  0  0  0  0  0
    8.1041  -36.1488   -4.8954 C   0  0  0  0  0  0
    7.2039  -31.7204   -2.2365 C   0  0  0  0  0  0
    7.2977  -30.4195   -1.8794 N   0  0  0  0  0  0
    6.7119  -29.7675   -0.8663 C   0  0  0  0  0  0
    7.1357  -28.4530   -0.9297 C   0  0  0  0  0  0
    7.9790  -28.2873   -1.9763 N   0  0  0  0  0  0
    8.0463  -29.5183   -2.5285 C   0  0  0  0  0  0
   10.3566  -27.2248   -2.6655 C   0  0  0  0  0  0
   11.4852  -26.8713   -1.6970 C   0  0  0  0  0  0
   12.7360  -26.6746   -2.4427 N   0  0  0  0  0  0
   13.4787  -25.4466   -2.2956 C   0  0  0  0  0  0
   12.8596  -24.3707   -2.0656 O   0  0  0  0  0  0
   14.9946  -25.4279   -2.3450 C   0  0  0  0  0  0
   15.5616  -24.1248   -1.7748 C   0  0  0  0  0  0
   16.0066  -24.4224   -0.3420 C   0  0  0  0  0  0
   15.8264  -25.9200   -0.1133 C   0  0  0  0  0  0
   15.5857  -26.5379   -1.4810 C   0  0  0  0  0  0
    5.4086  -32.6773   -3.4730 H   0  0  0  0  0  0
  1  2  1  0  0  0
  1  3  1  0  0  0
  3  4  1  0  0  0
  4  5  1  0  0  0
  5  6  1  0  0  0
  6  7  2  0  0  0
  7  8  1  0  0  0
  7  9  1  0  0  0
  9 10  1  0  0  0
 10 11  2  0  0  0
 11 12  1  0  0  0
 11 13  1  0  0  0
 13 14  2  0  0  0
 14 15  1  0  0  0
 15 16  2  0  0  0
 16 17  1  0  0  0
 16 18  1  0  0  0
 18 19  2  0  0  0
  9 20  2  0  0  0
 20 21  1  0  0  0
 21 22  1  0  0  0
 22 23  2  0  0  0
 23 24  1  0  0  0
 24 25  2  0  0  0
  4 26  1  0  0  0
 26 27  1  0  0  0
 27 28  1  0  0  0
 28 29  1  0  0  0
 29 30  2  0  0  0
 29 31  1  0  0  0
 31 32  1  0  0  0
 32 33  1  0  0  0
 33 34  1  0  0  0
 34 35  1  0  0  0
 28  1  1  0  0  0
 35 31  1  0  0  0
 25  6  1  0  0  0
 19 13  1  0  0  0
 25 21  1  0  0  0
 12 36  1  0  0  0
M  END
>  <CHROM.0>
-155.52111642,60.46602633,11.96414913,-178.92322596,-171.50189892

>  <CHROM.1>
146.80329599,-113.04474802,-125.94146377,6.70147320,169.14770471,-163.58275862
9.94904040,-30.37373005,-3.11004786,-0.97610967,-0.16206161,-2.76962592

>  <RI>
0

>  <Rbt.Current_Directory>
/extra/banzai2/j5wagner/CELPP/2016_10_17_rdock_implementation/normal_run/tutorialVideo/tutorial_rdock_implementation/full_week_run/4-docking/5m96/SMCSS_4wlb_docking

>  <Rbt.Executable>
rbdock ($Id: //depot/dev/client3/rdock/2013.1/src/exe/rbdock.cxx#4 $)

>  <Rbt.Library>
libRbt.so (2013.1, Build901 2013/11/27)

>  <Rbt.Parameter_File>
/home/j5wagner/env_00/source/rDock/rDock_2013.1_src//data/scripts/dock.prm

>  <Rbt.Receptor>
/extra/banzai2/j5wagner/CELPP/2016_10_17_rdock_implementation/normal_run/tutorialVideo/tutorial_rdock_implementation/full_week_run/4-docking/5m96/SMCSS_4wlb_tech_prep/rDockGridGenInput.prm

>  <SCORE>
-21.6255

>  <SCORE.INTER>
-12.9283

>  <SCORE.INTER.CONST>
1

>  <SCORE.INTER.POLAR>
-0.162315

>  <SCORE.INTER.REPUL>
0.167793

>  <SCORE.INTER.ROT>
5

>  <SCORE.INTER.VDW>
-23.6154

>  <SCORE.INTER.norm>
-0.369381

>  <SCORE.INTRA>
0.634411

>  <SCORE.INTRA.DIHEDRAL>
-2.16488

>  <SCORE.INTRA.DIHEDRAL.0>
9.74364

>  <SCORE.INTRA.POLAR>
0

>  <SCORE.INTRA.POLAR.0>
0

>  <SCORE.INTRA.REPUL>
-0.108387

>  <SCORE.INTRA.REPUL.0>
0.108387

>  <SCORE.INTRA.VDW>
2.25879

>  <SCORE.INTRA.VDW.0>
-2.87247

>  <SCORE.INTRA.norm>
0.018126

>  <SCORE.RESTR>
0

>  <SCORE.RESTR.CAVITY>
0

>  <SCORE.RESTR.norm>
0

>  <SCORE.SYSTEM>
-9.33157

>  <SCORE.SYSTEM.CONST>
0

>  <SCORE.SYSTEM.DIHEDRAL>
1.1499

>  <SCORE.SYSTEM.POLAR>
-2.64708

>  <SCORE.SYSTEM.VDW>
-0.906441

>  <SCORE.SYSTEM.norm>
-0.266616

>  <SCORE.heavy>
35

>  <SCORE.norm>
-0.617871

$$$$

  rDOCK(R)          3D
libRbt.so/2013.1/901 2013/11/27
 36 40  0  0  0  0  0  0  0  0999 V2000
   11.0674  -24.7524   -3.9889 C   0  0  0  0  0  0
    9.6265  -25.0003   -4.4525 C   0  0  0  0  0  0
   11.6763  -26.0141   -3.3514 C   0  0  0  0  0  0
   11.9302  -27.0491   -4.3762 N   0  0  0  0  0  0
   12.4221  -28.2857   -3.7347 C   0  0  0  0  0  0
   11.2856  -29.0315   -3.0608 C   0  0  0  0  0  0
   10.5622  -30.0933   -3.6827 C   0  0  0  0  0  0
   10.8842  -30.5092   -5.0998 C   0  0  0  0  0  0
    9.5544  -30.7850   -2.9486 C   0  0  0  0  0  0
    8.8295  -31.8657   -3.5620 N   0  0  0  0  0  0
    9.1495  -33.1272   -3.5300 C   0  0  0  0  0  0
   10.3395  -33.5343   -2.9206 O   0  0  0  0  0  0
    8.2644  -34.1144   -4.1959 C   0  0  0  0  0  0
    7.0620  -33.7288   -4.8082 C   0  0  0  0  0  0
    6.2679  -34.6587   -5.3989 N   0  0  0  0  0  0
    6.6197  -35.9713   -5.4221 C   0  0  0  0  0  0
    5.7063  -36.9794   -6.0353 C   0  0  0  0  0  0
    7.7790  -36.3705   -4.8386 N   0  0  0  0  0  0
    8.6040  -35.4769   -4.2352 C   0  0  0  0  0  0
    9.2296  -30.3491   -1.6492 C   0  0  0  0  0  0
    9.9282  -29.3202   -1.1182 N   0  0  0  0  0  0
    9.8120  -28.7388    0.0831 C   0  0  0  0  0  0
   10.7615  -27.7355    0.1427 C   0  0  0  0  0  0
   11.4635  -27.6918   -1.0146 N   0  0  0  0  0  0
   10.9165  -28.6797   -1.7560 C   0  0  0  0  0  0
   12.9034  -26.5473   -5.3695 C   0  0  0  0  0  0
   12.3243  -25.3353   -6.0992 C   0  0  0  0  0  0
   11.9039  -24.3217   -5.1218 N   0  0  0  0  0  0
   12.4063  -22.9729   -5.2191 C   0  0  0  0  0  0
   13.5655  -22.7741   -5.6779 O   0  0  0  0  0  0
   11.5480  -21.7798   -4.8442 C   0  0  0  0  0  0
   12.2430  -20.4572   -5.1797 C   0  0  0  0  0  0
   11.6510  -19.9663   -6.5018 C   0  0  0  0  0  0
   10.5225  -20.9224   -6.8759 C   0  0  0  0  0  0
   10.2476  -21.7666   -5.6422 C   0  0  0  0  0  0
   10.9867  -32.8818   -2.4983 H   0  0  0  0  0  0
  1  2  1  0  0  0
  1  3  1  0  0  0
  3  4  1  0  0  0
  4  5  1  0  0  0
  5  6  1  0  0  0
  6  7  2  0  0  0
  7  8  1  0  0  0
  7  9  1  0  0  0
  9 10  1  0  0  0
 10 11  2  0  0  0
 11 12  1  0  0  0
 11 13  1  0  0  0
 13 14  2  0  0  0
 14 15  1  0  0  0
 15 16  2  0  0  0
 16 17  1  0  0  0
 16 18  1  0  0  0
 18 19  2  0  0  0
  9 20  2  0  0  0
 20 21  1  0  0  0
 21 22  1  0  0  0
 22 23  2  0  0  0
 23 24  1  0  0  0
 24 25  2  0  0  0
  4 26  1  0  0  0
 26 27  1  0  0  0
 27 28  1  0  0  0
 28 29  1  0  0  0
 29 30  2  0  0  0
 29 31  1  0  0  0
 31 32  1  0  0  0
 32 33  1  0  0  0
 33 34  1  0  0  0
 34 35  1  0  0  0
 28  1  1  0  0  0
 35 31  1  0  0  0
 25  6  1  0  0  0
 19 13  1  0  0  0
 25 21  1  0  0  0
 12 36  1  0  0  0
M  END
>  <CHROM.0>
-2.37572122,59.41283845,-178.97516482,64.49570272,-179.90466325

>  <CHROM.1>
75.91121166,95.07431671,90.95162771,-0.52591859,-2.83488947,-173.59682313
10.28681186,-28.41973143,-4.07853097,-0.81334502,1.10465570,2.36032697

>  <RI>
0

>  <Rbt.Current_Directory>
/extra/banzai2/j5wagner/CELPP/2016_10_17_rdock_implementation/normal_run/tutorialVideo/tutorial_rdock_implementation/full_week_run/4-docking/5m96/SMCSS_4wlb_docking

>  <Rbt.Executable>
rbdock ($Id: //depot/dev/client3/rdock/2013.1/src/exe/rbdock.cxx#4 $)

>  <Rbt.Library>
libRbt.so (2013.1, Build901 2013/11/27)

>  <Rbt.Parameter_File>
/home/j5wagner/env_00/source/rDock/rDock_2013.1_src//data/scripts/dock.prm

>  <Rbt.Receptor>
/extra/banzai2/j5wagner/CELPP/2016_10_17_rdock_implementation/normal_run/tutorialVideo/tutorial_rdock_implementation/full_week_run/4-docking/5m96/SMCSS_4wlb_tech_prep/rDockGridGenInput.prm

>  <SCORE>
-21.4787

>  <SCORE.INTER>
-13.8848

>  <SCORE.INTER.CONST>
1

>  <SCORE.INTER.POLAR>
-0.229531

>  <SCORE.INTER.REPUL>
0

>  <SCORE.INTER.ROT>
5

>  <SCORE.INTER.VDW>
-23.5044

>  <SCORE.INTER.norm>
-0.396709

>  <SCORE.INTRA>
-0.902236

>  <SCORE.INTRA.DIHEDRAL>
-1.56481

>  <SCORE.INTRA.DIHEDRAL.0>
9.74364

>  <SCORE.INTRA.POLAR>
0

>  <SCORE.INTRA.POLAR.0>
0

>  <SCORE.INTRA.REPUL>
-0.108387

>  <SCORE.INTRA.REPUL.0>
0.108387

>  <SCORE.INTRA.VDW>
0.422105

>  <SCORE.INTRA.VDW.0>
-2.87247

>  <SCORE.INTRA.norm>
-0.0257782

>  <SCORE.RESTR>
0

>  <SCORE.RESTR.CAVITY>
0

>  <SCORE.RESTR.norm>
0

>  <SCORE.SYSTEM>
-6.6917

>  <SCORE.SYSTEM.CONST>
0

>  <SCORE.SYSTEM.DIHEDRAL>
0.124445

>  <SCORE.SYSTEM.POLAR>
-1.90693

>  <SCORE.SYSTEM.VDW>
-0.270348

>  <SCORE.SYSTEM.norm>
-0.191191

>  <SCORE.heavy>
35

>  <SCORE.norm>
-0.613678

$$$$

  rDOCK(R)          3D
libRbt.so/2013.1/901 2013/11/27
 36 40  0  0  0  0  0  0  0  0999 V2000
   11.6188  -24.2757   -3.5770 C   0  0  0  0  0  0
   10.1007  -24.4138   -3.7468 C   0  0  0  0  0  0
   12.2392  -25.5647   -3.0090 C   0  0  0  0  0  0
   12.2092  -26.6483   -4.0143 N   0  0  0  0  0  0
   12.7179  -27.9022   -3.4213 C   0  0  0  0  0  0
   11.5837  -28.7146   -2.8247 C   0  0  0  0  0  0
   10.9539  -29.8027   -3.5007 C   0  0  0  0  0  0
   11.3797  -30.1810   -4.9009 C   0  0  0  0  0  0
    9.9418  -30.5553   -2.8357 C   0  0  0  0  0  0
    9.3110  -31.6624   -3.5035 N   0  0  0  0  0  0
    8.0319  -31.8351   -3.6739 C   0  0  0  0  0  0
    7.1214  -30.9336   -3.1156 O   0  0  0  0  0  0
    7.5564  -33.0276   -4.4177 C   0  0  0  0  0  0
    8.3927  -33.7235   -5.3038 C   0  0  0  0  0  0
    7.9234  -34.8044   -5.9789 N   0  0  0  0  0  0
    6.6484  -35.2421   -5.8062 C   0  0  0  0  0  0
    6.1429  -36.4029   -6.5959 C   0  0  0  0  0  0
    5.8191  -34.5877   -4.9530 N   0  0  0  0  0  0
    6.2439  -33.5018   -4.2576 C   0  0  0  0  0  0
    9.5192  -30.1553   -1.5531 C   0  0  0  0  0  0
   10.1313  -29.1001   -0.9697 N   0  0  0  0  0  0
    9.9148  -28.5429    0.2292 C   0  0  0  0  0  0
   10.8061  -27.4936    0.3566 C   0  0  0  0  0  0
   11.5718  -27.3974   -0.7563 N   0  0  0  0  0  0
   11.1210  -28.4009   -1.5402 C   0  0  0  0  0  0
   13.0085  -26.2619   -5.1965 C   0  0  0  0  0  0
   12.3956  -25.0277   -5.8583 C   0  0  0  0  0  0
   12.2519  -23.9526   -4.8669 N   0  0  0  0  0  0
   12.8296  -22.6552   -5.1201 C   0  0  0  0  0  0
   13.8903  -22.5701   -5.7992 O   0  0  0  0  0  0
   12.1552  -21.3824   -4.6447 C   0  0  0  0  0  0
   12.6021  -20.1677   -5.4631 C   0  0  0  0  0  0
   11.5035  -19.8956   -6.4919 C   0  0  0  0  0  0
   10.3575  -20.8584   -6.1966 C   0  0  0  0  0  0
   10.6428  -21.4601   -4.8303 C   0  0  0  0  0  0
    7.4118  -30.0879   -2.6429 H   0  0  0  0  0  0
  1  2  1  0  0  0
  1  3  1  0  0  0
  3  4  1  0  0  0
  4  5  1  0  0  0
  5  6  1  0  0  0
  6  7  2  0  0  0
  7  8  1  0  0  0
  7  9  1  0  0  0
  9 10  1  0  0  0
 10 11  2  0  0  0
 11 12  1  0  0  0
 11 13  1  0  0  0
 13 14  2  0  0  0
 14 15  1  0  0  0
 15 16  2  0  0  0
 16 17  1  0  0  0
 16 18  1  0  0  0
 18 19  2  0  0  0
  9 20  2  0  0  0
 20 21  1  0  0  0
 21 22  1  0  0  0
 22 23  2  0  0  0
 23 24  1  0  0  0
 24 25  2  0  0  0
  4 26  1  0  0  0
 26 27  1  0  0  0
 27 28  1  0  0  0
 28 29  1  0  0  0
 29 30  2  0  0  0
 29 31  1  0  0  0
 31 32  1  0  0  0
 32 33  1  0  0  0
 33 34  1  0  0  0
 34 35  1  0  0  0
 28  1  1  0  0  0
 35 31  1  0  0  0
 25  6  1  0  0  0
 19 13  1  0  0  0
 25 21  1  0  0  0
 12 36  1  0  0  0
M  END
>  <CHROM.0>
-154.69710977,61.46999732,15.48142650,-176.99897682,-170.01568561

>  <CHROM.1>
91.22430730,98.05221944,-125.95742278,5.66963866,-21.40588147,-157.32873606
10.31594737,-27.90655483,-3.98225614,-0.61659154,1.09124562,2.20767459

>  <RI>
0

>  <Rbt.Current_Directory>
/extra/banzai2/j5wagner/CELPP/2016_10_17_rdock_implementation/normal_run/tutorialVideo/tutorial_rdock_implementation/full_week_run/4-docking/5m96/SMCSS_4wlb_docking

>  <Rbt.Executable>
rbdock ($Id: //depot/dev/client3/rdock/2013.1/src/exe/rbdock.cxx#4 $)

>  <Rbt.Library>
libRbt.so (2013.1, Build901 2013/11/27)

>  <Rbt.Parameter_File>
/home/j5wagner/env_00/source/rDock/rDock_2013.1_src//data/scripts/dock.prm

>  <Rbt.Receptor>
/extra/banzai2/j5wagner/CELPP/2016_10_17_rdock_implementation/normal_run/tutorialVideo/tutorial_rdock_implementation/full_week_run/4-docking/5m96/SMCSS_4wlb_tech_prep/rDockGridGenInput.prm

>  <SCORE>
-21.3789

>  <SCORE.INTER>
-12.6473

>  <SCORE.INTER.CONST>
1

>  <SCORE.INTER.POLAR>
-0.481813

>  <SCORE.INTER.REPUL>
0

>  <SCORE.INTER.ROT>
5

>  <SCORE.INTER.VDW>
-21.4092

>  <SCORE.INTER.norm>
-0.361353

>  <SCORE.INTRA>
0.536065

>  <SCORE.INTRA.DIHEDRAL>
-0.694934

>  <SCORE.INTRA.DIHEDRAL.0>
9.74364

>  <SCORE.INTRA.POLAR>
0

>  <SCORE.INTRA.POLAR.0>
0

>  <SCORE.INTRA.REPUL>
-0.108387

>  <SCORE.INTRA.REPUL.0>
0.108387

>  <SCORE.INTRA.VDW>
1.42547

>  <SCORE.INTRA.VDW.0>
-2.87247

>  <SCORE.INTRA.norm>
0.0153161

>  <SCORE.RESTR>
0.0044074

>  <SCORE.RESTR.CAVITY>
0.0044074

>  <SCORE.RESTR.norm>
0.000125926

>  <SCORE.SYSTEM>
-9.27205

>  <SCORE.SYSTEM.CONST>
0

>  <SCORE.SYSTEM.DIHEDRAL>
1.42274

>  <SCORE.SYSTEM.POLAR>
-2.64305

>  <SCORE.SYSTEM.VDW>
-0.997038

>  <SCORE.SYSTEM.norm>
-0.264916

>  <SCORE.heavy>
35

>  <SCORE.norm>
-0.610826

$$$$

  rDOCK(R)          3D
libRbt.so/2013.1/901 2013/11/27
 36 40  0  0  0  0  0  0  0  0999 V2000
    8.0367  -32.8532   -3.1020 C   0  0  0  0  0  0
    9.3954  -33.2267   -2.4963 C   0  0  0  0  0  0
    7.8222  -31.3291   -3.1011 C   0  0  0  0  0  0
    8.7103  -30.6740   -4.0850 N   0  0  0  0  0  0
    8.5616  -29.2064   -4.0017 C   0  0  0  0  0  0
    9.9173  -28.5255   -4.0287 C   0  0  0  0  0  0
   10.0905  -27.1237   -4.2346 C   0  0  0  0  0  0
    8.8931  -26.2341   -4.4792 C   0  0  0  0  0  0
   11.3981  -26.5583   -4.1751 C   0  0  0  0  0  0
   11.5815  -25.1445   -4.3674 N   0  0  0  0  0  0
   11.6339  -24.5201   -5.5086 C   0  0  0  0  0  0
   11.5882  -25.2404   -6.7054 O   0  0  0  0  0  0
   11.7987  -23.0457   -5.5188 C   0  0  0  0  0  0
   11.8622  -22.3209   -6.7187 C   0  0  0  0  0  0
   12.0258  -20.9729   -6.6942 N   0  0  0  0  0  0
   12.1194  -20.2972   -5.5187 C   0  0  0  0  0  0
   12.3470  -18.8225   -5.5201 C   0  0  0  0  0  0
   12.0589  -20.9745   -4.3434 N   0  0  0  0  0  0
   11.8973  -22.3223   -4.3186 C   0  0  0  0  0  0
   12.5072  -27.4089   -4.0009 C   0  0  0  0  0  0
   12.2879  -28.7332   -3.8379 N   0  0  0  0  0  0
   13.1658  -29.7276   -3.6511 C   0  0  0  0  0  0
   12.4371  -30.8968   -3.5346 C   0  0  0  0  0  0
   11.1139  -30.6321   -3.6494 N   0  0  0  0  0  0
   11.0719  -29.2948   -3.8354 C   0  0  0  0  0  0
    8.3993  -31.1590   -5.4466 C   0  0  0  0  0  0
    8.6694  -32.6608   -5.5384 C   0  0  0  0  0  0
    7.9316  -33.3635   -4.4795 N   0  0  0  0  0  0
    7.0391  -34.4453   -4.8175 C   0  0  0  0  0  0
    6.4285  -34.4239   -5.9222 O   0  0  0  0  0  0
    6.8669  -35.6439   -3.9039 C   0  0  0  0  0  0
    5.9800  -36.7168   -4.5420 C   0  0  0  0  0  0
    6.9143  -37.7850   -5.1125 C   0  0  0  0  0  0
    8.3347  -37.4127   -4.6983 C   0  0  0  0  0  0
    8.2041  -36.3296   -3.6401 C   0  0  0  0  0  0
   11.6352  -24.7946   -7.6121 H   0  0  0  0  0  0
  1  2  1  0  0  0
  1  3  1  0  0  0
  3  4  1  0  0  0
  4  5  1  0  0  0
  5  6  1  0  0  0
  6  7  2  0  0  0
  7  8  1  0  0  0
  7  9  1  0  0  0
  9 10  1  0  0  0
 10 11  2  0  0  0
 11 12  1  0  0  0
 11 13  1  0  0  0
 13 14  2  0  0  0
 14 15  1  0  0  0
 15 16  2  0  0  0
 16 17  1  0  0  0
 16 18  1  0  0  0
 18 19  2  0  0  0
  9 20  2  0  0  0
 20 21  1  0  0  0
 21 22  1  0  0  0
 22 23  2  0  0  0
 23 24  1  0  0  0
 24 25  2  0  0  0
  4 26  1  0  0  0
 26 27  1  0  0  0
 27 28  1  0  0  0
 28 29  1  0  0  0
 29 30  2  0  0  0
 29 31  1  0  0  0
 31 32  1  0  0  0
 32 33  1  0  0  0
 33 34  1  0  0  0
 34 35  1  0  0  0
 28  1  1  0  0  0
 35 31  1  0  0  0
 25  6  1  0  0  0
 19 13  1  0  0  0
 25 21  1  0  0  0
 12 36  1  0  0  0
M  END
>  <CHROM.0>
-154.89641940,61.96635560,-174.99114180,67.88625876,-177.63423395

>  <CHROM.1>
135.43986389,166.87780507,-81.16759456,-179.39754535,179.96517471,-174.27361289
9.93365618,-29.09127414,-4.57719939,-1.93059045,-0.44864663,-0.23799011

>  <RI>
0

>  <Rbt.Current_Directory>
/extra/banzai2/j5wagner/CELPP/2016_10_17_rdock_implementation/normal_run/tutorialVideo/tutorial_rdock_implementation/full_week_run/4-docking/5m96/SMCSS_4wlb_docking

>  <Rbt.Executable>
rbdock ($Id: //depot/dev/client3/rdock/2013.1/src/exe/rbdock.cxx#4 $)

>  <Rbt.Library>
libRbt.so (2013.1, Build901 2013/11/27)

>  <Rbt.Parameter_File>
/home/j5wagner/env_00/source/rDock/rDock_2013.1_src//data/scripts/dock.prm

>  <Rbt.Receptor>
/extra/banzai2/j5wagner/CELPP/2016_10_17_rdock_implementation/normal_run/tutorialVideo/tutorial_rdock_implementation/full_week_run/4-docking/5m96/SMCSS_4wlb_tech_prep/rDockGridGenInput.prm

>  <SCORE>
-20.7583

>  <SCORE.INTER>
-15.1543

>  <SCORE.INTER.CONST>
1

>  <SCORE.INTER.POLAR>
0

>  <SCORE.INTER.REPUL>
0

>  <SCORE.INTER.ROT>
5

>  <SCORE.INTER.VDW>
-25.5543

>  <SCORE.INTER.norm>
-0.43298

>  <SCORE.INTRA>
3.41191

>  <SCORE.INTRA.DIHEDRAL>
-0.132053

>  <SCORE.INTRA.DIHEDRAL.0>
9.74364

>  <SCORE.INTRA.POLAR>
0

>  <SCORE.INTRA.POLAR.0>
0

>  <SCORE.INTRA.REPUL>
0.531868

>  <SCORE.INTRA.REPUL.0>
0.108387

>  <SCORE.INTRA.VDW>
0.818593

>  <SCORE.INTRA.VDW.0>
-2.87247

>  <SCORE.INTRA.norm>
0.097483

>  <SCORE.RESTR>
0.210454

>  <SCORE.RESTR.CAVITY>
0.210454

>  <SCORE.RESTR.norm>
0.00601297

>  <SCORE.SYSTEM>
-9.22634

>  <SCORE.SYSTEM.CONST>
0

>  <SCORE.SYSTEM.DIHEDRAL>
1.24377

>  <SCORE.SYSTEM.POLAR>
-2.66005

>  <SCORE.SYSTEM.VDW>
-0.804052

>  <SCORE.SYSTEM.norm>
-0.26361

>  <SCORE.heavy>
35

>  <SCORE.norm>
-0.593094

$$$$

  rDOCK(R)          3D
libRbt.so/2013.1/901 2013/11/27
 36 40  0  0  0  0  0  0  0  0999 V2000
    8.6808  -33.1029   -2.9223 C   0  0  0  0  0  0
   10.1116  -33.2198   -2.3822 C   0  0  0  0  0  0
    8.0048  -31.8057   -2.4433 C   0  0  0  0  0  0
    8.6058  -30.6268   -3.1028 N   0  0  0  0  0  0
    8.0132  -29.3871   -2.5599 C   0  0  0  0  0  0
    9.0836  -28.3389   -2.3199 C   0  0  0  0  0  0
    9.4398  -27.3431   -3.2786 C   0  0  0  0  0  0
    8.7690  -27.3124   -4.6329 C   0  0  0  0  0  0
   10.4095  -26.3538   -2.9411 C   0  0  0  0  0  0
   10.7649  -25.3377   -3.8955 N   0  0  0  0  0  0
    9.9845  -24.4030   -4.3559 C   0  0  0  0  0  0
    8.6372  -24.3680   -3.9859 O   0  0  0  0  0  0
   10.5306  -23.4144   -5.3181 C   0  0  0  0  0  0
   11.9100  -23.1826   -5.4313 C   0  0  0  0  0  0
   12.3774  -22.2620   -6.3134 N   0  0  0  0  0  0
   11.5305  -21.5575   -7.1093 C   0  0  0  0  0  0
   12.0663  -20.5177   -8.0358 C   0  0  0  0  0  0
   10.1913  -21.7641   -7.0211 N   0  0  0  0  0  0
    9.6781  -22.6732   -6.1530 C   0  0  0  0  0  0
   11.0640  -26.4298   -1.6962 C   0  0  0  0  0  0
   10.7071  -27.4104   -0.8362 N   0  0  0  0  0  0
   11.1720  -27.6813    0.3906 C   0  0  0  0  0  0
   10.4769  -28.7828    0.8547 C   0  0  0  0  0  0
    9.5859  -29.1958   -0.0778 N   0  0  0  0  0  0
    9.7646  -28.3258   -1.0958 C   0  0  0  0  0  0
    8.4059  -30.7104   -4.5652 C   0  0  0  0  0  0
    9.1241  -31.9409   -5.1192 C   0  0  0  0  0  0
    8.6836  -33.1409   -4.3945 N   0  0  0  0  0  0
    8.1574  -34.2706   -5.1212 C   0  0  0  0  0  0
    7.5262  -34.0768   -6.1973 O   0  0  0  0  0  0
    8.4020  -35.6937   -4.6569 C   0  0  0  0  0  0
    7.4261  -36.1015   -3.5496 C   0  0  0  0  0  0
    6.3219  -36.9275   -4.2113 C   0  0  0  0  0  0
    6.7130  -37.1179   -5.6737 C   0  0  0  0  0  0
    8.1665  -36.6888   -5.7894 C   0  0  0  0  0  0
    8.2419  -25.0039   -3.3059 H   0  0  0  0  0  0
  1  2  1  0  0  0
  1  3  1  0  0  0
  3  4  1  0  0  0
  4  5  1  0  0  0
  5  6  1  0  0  0
  6  7  2  0  0  0
  7  8  1  0  0  0
  7  9  1  0  0  0
  9 10  1  0  0  0
 10 11  2  0  0  0
 11 12  1  0  0  0
 11 13  1  0  0  0
 13 14  2  0  0  0
 14 15  1  0  0  0
 15 16  2  0  0  0
 16 17  1  0  0  0
 16 18  1  0  0  0
 18 19  2  0  0  0
  9 20  2  0  0  0
 20 21  1  0  0  0
 21 22  1  0  0  0
 22 23  2  0  0  0
 23 24  1  0  0  0
 24 25  2  0  0  0
  4 26  1  0  0  0
 26 27  1  0  0  0
 27 28  1  0  0  0
 28 29  1  0  0  0
 29 30  2  0  0  0
 29 31  1  0  0  0
 31 32  1  0  0  0
 32 33  1  0  0  0
 33 34  1  0  0  0
 34 35  1  0  0  0
 28  1  1  0  0  0
 35 31  1  0  0  0
 25  6  1  0  0  0
 19 13  1  0  0  0
 25 21  1  0  0  0
 12 36  1  0  0  0
M  END
>  <CHROM.0>
4.81411642,59.55011440,179.89359532,-62.29371255,-178.75402920

>  <CHROM.1>
137.30477267,93.14294826,65.33406382,4.99410355,-20.32282631,81.62506822
9.40852299,-28.96490932,-3.91416864,-2.60343399,-1.28051975,-1.10465648

>  <RI>
0

>  <Rbt.Current_Directory>
/extra/banzai2/j5wagner/CELPP/2016_10_17_rdock_implementation/normal_run/tutorialVideo/tutorial_rdock_implementation/full_week_run/4-docking/5m96/SMCSS_4wlb_docking

>  <Rbt.Executable>
rbdock ($Id: //depot/dev/client3/rdock/2013.1/src/exe/rbdock.cxx#4 $)

>  <Rbt.Library>
libRbt.so (2013.1, Build901 2013/11/27)

>  <Rbt.Parameter_File>
/home/j5wagner/env_00/source/rDock/rDock_2013.1_src//data/scripts/dock.prm

>  <Rbt.Receptor>
/extra/banzai2/j5wagner/CELPP/2016_10_17_rdock_implementation/normal_run/tutorialVideo/tutorial_rdock_implementation/full_week_run/4-docking/5m96/SMCSS_4wlb_tech_prep/rDockGridGenInput.prm

>  <SCORE>
-20.3163

>  <SCORE.INTER>
-14.3173

>  <SCORE.INTER.CONST>
1

>  <SCORE.INTER.POLAR>
-0.959166

>  <SCORE.INTER.REPUL>
0.0009861

>  <SCORE.INTER.ROT>
5

>  <SCORE.INTER.VDW>
-21.4611

>  <SCORE.INTER.norm>
-0.409067

>  <SCORE.INTRA>
0.587363

>  <SCORE.INTRA.DIHEDRAL>
0.722935

>  <SCORE.INTRA.DIHEDRAL.0>
9.74364

>  <SCORE.INTRA.POLAR>
0

>  <SCORE.INTRA.POLAR.0>
0

>  <SCORE.INTRA.REPUL>
-0.108387

>  <SCORE.INTRA.REPUL.0>
0.108387

>  <SCORE.INTRA.VDW>
0.767832

>  <SCORE.INTRA.VDW.0>
-2.87247

>  <SCORE.INTRA.norm>
0.0167818

>  <SCORE.RESTR>
0

>  <SCORE.RESTR.CAVITY>
0

>  <SCORE.RESTR.norm>
0

>  <SCORE.SYSTEM>
-6.58637

>  <SCORE.SYSTEM.CONST>
0

>  <SCORE.SYSTEM.DIHEDRAL>
0.0798287

>  <SCORE.SYSTEM.POLAR>
-1.9051

>  <SCORE.SYSTEM.VDW>
-0.148949

>  <SCORE.SYSTEM.norm>
-0.188182

>  <SCORE.heavy>
35

>  <SCORE.norm>
-0.580467

$$$$

  rDOCK(R)          3D
libRbt.so/2013.1/901 2013/11/27
 36 40  0  0  0  0  0  0  0  0999 V2000
    7.6521  -30.6785   -2.4188 C   0  0  0  0  0  0
    8.3509  -31.1462   -1.1360 C   0  0  0  0  0  0
    7.4087  -29.1588   -2.4028 C   0  0  0  0  0  0
    8.6829  -28.4222   -2.5431 N   0  0  0  0  0  0
    8.4421  -26.9691   -2.4277 C   0  0  0  0  0  0
    9.7039  -26.1876   -2.7430 C   0  0  0  0  0  0
   10.9322  -26.3565   -2.0359 C   0  0  0  0  0  0
   11.0209  -27.3269   -0.8803 C   0  0  0  0  0  0
   12.0880  -25.6291   -2.4459 C   0  0  0  0  0  0
   13.3341  -25.8028   -1.7483 N   0  0  0  0  0  0
   14.4074  -25.0802   -1.8919 C   0  0  0  0  0  0
   14.4477  -24.0664   -2.8530 O   0  0  0  0  0  0
   15.5998  -25.3847   -1.0631 C   0  0  0  0  0  0
   15.5159  -25.4975    0.3331 C   0  0  0  0  0  0
   16.6284  -25.7651    1.0645 N   0  0  0  0  0  0
   17.8368  -25.9405    0.4678 C   0  0  0  0  0  0
   19.0521  -26.1859    1.2981 C   0  0  0  0  0  0
   17.9451  -25.8386   -0.8819 N   0  0  0  0  0  0
   16.8606  -25.5713   -1.6538 C   0  0  0  0  0  0
   11.9741  -24.6891   -3.4886 C   0  0  0  0  0  0
   10.7794  -24.5495   -4.1065 N   0  0  0  0  0  0
   10.4285  -23.7395   -5.1142 C   0  0  0  0  0  0
    9.0945  -23.9818   -5.3849 C   0  0  0  0  0  0
    8.6175  -24.9357   -4.5503 N   0  0  0  0  0  0
    9.6851  -25.2516   -3.7851 C   0  0  0  0  0  0
    9.3153  -28.7506   -3.8384 C   0  0  0  0  0  0
    9.6577  -30.2396   -3.8877 C   0  0  0  0  0  0
    8.4561  -31.0350   -3.6000 N   0  0  0  0  0  0
    8.0256  -32.0535   -4.5266 C   0  0  0  0  0  0
    8.2390  -31.8993   -5.7613 O   0  0  0  0  0  0
    7.3801  -33.3391   -4.0457 C   0  0  0  0  0  0
    7.1571  -34.3235   -5.1972 C   0  0  0  0  0  0
    8.2982  -35.3405   -5.1406 C   0  0  0  0  0  0
    9.1133  -35.0378   -3.8869 C   0  0  0  0  0  0
    8.2838  -34.0709   -3.0579 C   0  0  0  0  0  0
   15.2637  -23.4873   -3.0008 H   0  0  0  0  0  0
  1  2  1  0  0  0
  1  3  1  0  0  0
  3  4  1  0  0  0
  4  5  1  0  0  0
  5  6  1  0  0  0
  6  7  2  0  0  0
  7  8  1  0  0  0
  7  9  1  0  0  0
  9 10  1  0  0  0
 10 11  2  0  0  0
 11 12  1  0  0  0
 11 13  1  0  0  0
 13 14  2  0  0  0
 14 15  1  0  0  0
 15 16  2  0  0  0
 16 17  1  0  0  0
 16 18  1  0  0  0
 18 19  2  0  0  0
  9 20  2  0  0  0
 20 21  1  0  0  0
 21 22  1  0  0  0
 22 23  2  0  0  0
 23 24  1  0  0  0
 24 25  2  0  0  0
  4 26  1  0  0  0
 26 27  1  0  0  0
 27 28  1  0  0  0
 28 29  1  0  0  0
 29 30  2  0  0  0
 29 31  1  0  0  0
 31 32  1  0  0  0
 32 33  1  0  0  0
 33 34  1  0  0  0
 34 35  1  0  0  0
 28  1  1  0  0  0
 35 31  1  0  0  0
 25  6  1  0  0  0
 19 13  1  0  0  0
 25 21  1  0  0  0
 12 36  1  0  0  0
M  END
>  <CHROM.0>
-157.95726058,-46.00798830,10.97696366,63.09529712,-173.81409416

>  <CHROM.1>
-172.82274606,-57.96167831,-169.94483985,-179.55739257,-51.89596625,-173.55637520
11.13516101,-28.06870334,-2.73209856,-2.47650387,-0.47553601,-0.12783173

>  <RI>
0

>  <Rbt.Current_Directory>
/extra/banzai2/j5wagner/CELPP/2016_10_17_rdock_implementation/normal_run/tutorialVideo/tutorial_rdock_implementation/full_week_run/4-docking/5m96/SMCSS_4wlb_docking

>  <Rbt.Executable>
rbdock ($Id: //depot/dev/client3/rdock/2013.1/src/exe/rbdock.cxx#4 $)

>  <Rbt.Library>
libRbt.so (2013.1, Build901 2013/11/27)

>  <Rbt.Parameter_File>
/home/j5wagner/env_00/source/rDock/rDock_2013.1_src//data/scripts/dock.prm

>  <Rbt.Receptor>
/extra/banzai2/j5wagner/CELPP/2016_10_17_rdock_implementation/normal_run/tutorialVideo/tutorial_rdock_implementation/full_week_run/4-docking/5m96/SMCSS_4wlb_tech_prep/rDockGridGenInput.prm

>  <SCORE>
-20.2954

>  <SCORE.INTER>
-16.942

>  <SCORE.INTER.CONST>
1

>  <SCORE.INTER.POLAR>
-1.54972

>  <SCORE.INTER.REPUL>
0

>  <SCORE.INTER.ROT>
5

>  <SCORE.INTER.VDW>
-22.0729

>  <SCORE.INTER.norm>
-0.484056

>  <SCORE.INTRA>
1.61687

>  <SCORE.INTRA.DIHEDRAL>
-0.526319

>  <SCORE.INTRA.DIHEDRAL.0>
9.74364

>  <SCORE.INTRA.POLAR>
0

>  <SCORE.INTRA.POLAR.0>
0

>  <SCORE.INTRA.REPUL>
-0.108387

>  <SCORE.INTRA.REPUL.0>
0.108387

>  <SCORE.INTRA.VDW>
2.42196

>  <SCORE.INTRA.VDW.0>
-2.87247

>  <SCORE.INTRA.norm>
0.0461962

>  <SCORE.RESTR>
0

>  <SCORE.RESTR.CAVITY>
0

>  <SCORE.RESTR.norm>
0

>  <SCORE.SYSTEM>
-4.97034

>  <SCORE.SYSTEM.CONST>
0

>  <SCORE.SYSTEM.DIHEDRAL>
1.88061

>  <SCORE.SYSTEM.POLAR>
-1.59113

>  <SCORE.SYSTEM.VDW>
-0.500791

>  <SCORE.SYSTEM.norm>
-0.14201

>  <SCORE.heavy>
35

>  <SCORE.norm>
-0.579869

$$$$

  rDOCK(R)          3D
libRbt.so/2013.1/901 2013/11/27
 36 40  0  0  0  0  0  0  0  0999 V2000
   11.1867  -25.0659   -5.2185 C   0  0  0  0  0  0
   12.5632  -25.2362   -4.5637 C   0  0  0  0  0  0
   10.2409  -26.2213   -4.8445 C   0  0  0  0  0  0
    9.8417  -26.1330   -3.4237 N   0  0  0  0  0  0
    9.0147  -27.3012   -3.0575 C   0  0  0  0  0  0
    9.8034  -28.5884   -3.2104 C   0  0  0  0  0  0
    9.2091  -29.8400   -3.5536 C   0  0  0  0  0  0
    7.7141  -29.9473   -3.7496 C   0  0  0  0  0  0
   10.0369  -30.9852   -3.7444 C   0  0  0  0  0  0
    9.4488  -32.2478   -4.1040 N   0  0  0  0  0  0
    9.6858  -33.3985   -3.5431 C   0  0  0  0  0  0
   10.6492  -33.5033   -2.5361 O   0  0  0  0  0  0
    8.9621  -34.6005   -4.0257 C   0  0  0  0  0  0
    9.2676  -35.8841   -3.5482 C   0  0  0  0  0  0
    8.5948  -36.9658   -4.0191 N   0  0  0  0  0  0
    7.6104  -36.8324   -4.9466 C   0  0  0  0  0  0
    6.9195  -38.0415   -5.4828 C   0  0  0  0  0  0
    7.2937  -35.6011   -5.4236 N   0  0  0  0  0  0
    7.9401  -34.4913   -4.9832 C   0  0  0  0  0  0
   11.4208  -30.8803   -3.5043 C   0  0  0  0  0  0
   11.9276  -29.6764   -3.1547 N   0  0  0  0  0  0
   13.1928  -29.3280   -2.8851 C   0  0  0  0  0  0
   13.1877  -27.9783   -2.5853 C   0  0  0  0  0  0
   11.9272  -27.4897   -2.6664 N   0  0  0  0  0  0
   11.1906  -28.5666   -3.0166 C   0  0  0  0  0  0
    9.1087  -24.8719   -3.1831 C   0  0  0  0  0  0
   10.0221  -23.6780   -3.4607 C   0  0  0  0  0  0
   10.5816  -23.7853   -4.8152 N   0  0  0  0  0  0
   10.4245  -22.6974   -5.7495 C   0  0  0  0  0  0
    9.3917  -21.9738   -5.6914 O   0  0  0  0  0  0
   11.5043  -22.3600   -6.7599 C   0  0  0  0  0  0
   11.1607  -21.0950   -7.5515 C   0  0  0  0  0  0
   11.9479  -19.9464   -6.9187 C   0  0  0  0  0  0
   12.8501  -20.5514   -5.8475 C   0  0  0  0  0  0
   12.8289  -22.0553   -6.0667 C   0  0  0  0  0  0
   10.8691  -34.3793   -2.0810 H   0  0  0  0  0  0
  1  2  1  0  0  0
  1  3  1  0  0  0
  3  4  1  0  0  0
  4  5  1  0  0  0
  5  6  1  0  0  0
  6  7  2  0  0  0
  7  8  1  0  0  0
  7  9  1  0  0  0
  9 10  1  0  0  0
 10 11  2  0  0  0
 11 12  1  0  0  0
 11 13  1  0  0  0
 13 14  2  0  0  0
 14 15  1  0  0  0
 15 16  2  0  0  0
 16 17  1  0  0  0
 16 18  1  0  0  0
 18 19  2  0  0  0
  9 20  2  0  0  0
 20 21  1  0  0  0
 21 22  1  0  0  0
 22 23  2  0  0  0
 23 24  1  0  0  0
 24 25  2  0  0  0
  4 26  1  0  0  0
 26 27  1  0  0  0
 27 28  1  0  0  0
 28 29  1  0  0  0
 29 30  2  0  0  0
 29 31  1  0  0  0
 31 32  1  0  0  0
 32 33  1  0  0  0
 33 34  1  0  0  0
 34 35  1  0  0  0
 28  1  1  0  0  0
 35 31  1  0  0  0
 25  6  1  0  0  0
 19 13  1  0  0  0
 25 21  1  0  0  0
 12 36  1  0  0  0
M  END
>  <CHROM.0>
2.16560391,60.31441935,178.26396788,64.17749060,176.62320716

>  <CHROM.1>
62.23149967,-149.37973798,-131.39282893,-179.44554221,173.84338884,-174.91131604
10.24792251,-28.44341749,-4.34749240,1.31342084,-0.62472941,-0.26029691

>  <RI>
0

>  <Rbt.Current_Directory>
/extra/banzai2/j5wagner/CELPP/2016_10_17_rdock_implementation/normal_run/tutorialVideo/tutorial_rdock_implementation/full_week_run/4-docking/5m96/SMCSS_4wlb_docking

>  <Rbt.Executable>
rbdock ($Id: //depot/dev/client3/rdock/2013.1/src/exe/rbdock.cxx#4 $)

>  <Rbt.Library>
libRbt.so (2013.1, Build901 2013/11/27)

>  <Rbt.Parameter_File>
/home/j5wagner/env_00/source/rDock/rDock_2013.1_src//data/scripts/dock.prm

>  <Rbt.Receptor>
/extra/banzai2/j5wagner/CELPP/2016_10_17_rdock_implementation/normal_run/tutorialVideo/tutorial_rdock_implementation/full_week_run/4-docking/5m96/SMCSS_4wlb_tech_prep/rDockGridGenInput.prm

>  <SCORE>
-19.7915

>  <SCORE.INTER>
-13.6228

>  <SCORE.INTER.CONST>
1

>  <SCORE.INTER.POLAR>
0

>  <SCORE.INTER.REPUL>
0

>  <SCORE.INTER.ROT>
5

>  <SCORE.INTER.VDW>
-24.0228

>  <SCORE.INTER.norm>
-0.389222

>  <SCORE.INTRA>
0.522568

>  <SCORE.INTRA.DIHEDRAL>
-4.92292

>  <SCORE.INTRA.DIHEDRAL.0>
9.74364

>  <SCORE.INTRA.POLAR>
0

>  <SCORE.INTRA.POLAR.0>
0

>  <SCORE.INTRA.REPUL>
0.285837

>  <SCORE.INTRA.REPUL.0>
0.108387

>  <SCORE.INTRA.VDW>
1.55484

>  <SCORE.INTRA.VDW.0>
-2.87247

>  <SCORE.INTRA.norm>
0.0149305

>  <SCORE.RESTR>
0

>  <SCORE.RESTR.CAVITY>
0

>  <SCORE.RESTR.norm>
0

>  <SCORE.SYSTEM>
-6.69134

>  <SCORE.SYSTEM.CONST>
0

>  <SCORE.SYSTEM.DIHEDRAL>
0.130333

>  <SCORE.SYSTEM.POLAR>
-1.89698

>  <SCORE.SYSTEM.VDW>
-0.306778

>  <SCORE.SYSTEM.norm>
-0.191181

>  <SCORE.heavy>
35

>  <SCORE.norm>
-0.565472

$$$$

  rDOCK(R)          3D
libRbt.so/2013.1/901 2013/11/27
 36 40  0  0  0  0  0  0  0  0999 V2000
   10.4625  -28.2104   -3.1842 C   0  0  0  0  0  0
   11.3060  -29.4540   -3.4915 C   0  0  0  0  0  0
    8.9758  -28.5698   -3.0115 C   0  0  0  0  0  0
    8.7601  -29.3205   -1.7563 N   0  0  0  0  0  0
    7.3475  -29.7411   -1.6551 C   0  0  0  0  0  0
    7.2447  -31.1604   -1.1285 C   0  0  0  0  0  0
    7.1556  -32.3087   -1.9717 C   0  0  0  0  0  0
    7.1217  -32.1516   -3.4748 C   0  0  0  0  0  0
    7.1324  -33.6105   -1.3906 C   0  0  0  0  0  0
    7.0568  -34.7745   -2.2325 N   0  0  0  0  0  0
    8.0597  -35.3998   -2.7785 C   0  0  0  0  0  0
    9.3583  -34.9037   -2.6350 O   0  0  0  0  0  0
    7.7979  -36.6088   -3.5978 C   0  0  0  0  0  0
    6.5026  -36.9451   -4.0198 C   0  0  0  0  0  0
    6.2946  -38.0654   -4.7588 N   0  0  0  0  0  0
    7.3268  -38.8746   -5.1146 C   0  0  0  0  0  0
    7.0651  -40.1249   -5.8859 C   0  0  0  0  0  0
    8.5904  -38.5709   -4.7208 N   0  0  0  0  0  0
    8.8462  -37.4621   -3.9801 C   0  0  0  0  0  0
    7.1093  -33.7364    0.0121 C   0  0  0  0  0  0
    7.1681  -32.6139    0.7638 N   0  0  0  0  0  0
    7.1679  -32.4774    2.0964 C   0  0  0  0  0  0
    7.2481  -31.1238    2.3665 C   0  0  0  0  0  0
    7.2967  -30.4219    1.2093 N   0  0  0  0  0  0
    7.2436  -31.3770    0.2555 C   0  0  0  0  0  0
    9.1466  -28.4875   -0.5976 C   0  0  0  0  0  0
   10.6381  -28.1602   -0.6663 C   0  0  0  0  0  0
   10.9525  -27.5469   -1.9641 N   0  0  0  0  0  0
   11.6180  -26.2680   -2.0160 C   0  0  0  0  0  0
   11.4106  -25.4231   -1.1011 O   0  0  0  0  0  0
   12.6145  -25.9383   -3.1109 C   0  0  0  0  0  0
   13.2949  -24.5883   -2.8668 C   0  0  0  0  0  0
   14.6651  -24.8847   -2.2553 C   0  0  0  0  0  0
   14.8461  -26.3995   -2.2614 C   0  0  0  0  0  0
   13.7467  -26.9603   -3.1487 C   0  0  0  0  0  0
   10.1565  -35.3254   -3.0910 H   0  0  0  0  0  0
  1  2  1  0  0  0
  1  3  1  0  0  0
  3  4  1  0  0  0
  4  5  1  0  0  0
  5  6  1  0  0  0
  6  7  2  0  0  0
  7  8  1  0  0  0
  7  9  1  0  0  0
  9 10  1  0  0  0
 10 11  2  0  0  0
 11 12  1  0  0  0
 11 13  1  0  0  0
 13 14  2  0  0  0
 14 15  1  0  0  0
 15 16  2  0  0  0
 16 17  1  0  0  0
 16 18  1  0  0  0
 18 19  2  0  0  0
  9 20  2  0  0  0
 20 21  1  0  0  0
 21 22  1  0  0  0
 22 23  2  0  0  0
 23 24  1  0  0  0
 24 25  2  0  0  0
  4 26  1  0  0  0
 26 27  1  0  0  0
 27 28  1  0  0  0
 28 29  1  0  0  0
 29 30  2  0  0  0
 29 31  1  0  0  0
 31 32  1  0  0  0
 32 33  1  0  0  0
 33 34  1  0  0  0
 34 35  1  0  0  0
 28  1  1  0  0  0
 35 31  1  0  0  0
 25  6  1  0  0  0
 19 13  1  0  0  0
 25 21  1  0  0  0
 12 36  1  0  0  0
M  END
>  <CHROM.0>
15.68933196,61.26176563,8.95467631,66.25477953,-161.81505736

>  <CHROM.1>
138.51679017,-93.85897040,86.51905113,-176.01947849,12.83350372,-173.84490723
9.15852765,-31.44760534,-2.13735143,-0.96306142,-0.76643786,-2.54380448

>  <RI>
0

>  <Rbt.Current_Directory>
/extra/banzai2/j5wagner/CELPP/2016_10_17_rdock_implementation/normal_run/tutorialVideo/tutorial_rdock_implementation/full_week_run/4-docking/5m96/SMCSS_4wlb_docking

>  <Rbt.Executable>
rbdock ($Id: //depot/dev/client3/rdock/2013.1/src/exe/rbdock.cxx#4 $)

>  <Rbt.Library>
libRbt.so (2013.1, Build901 2013/11/27)

>  <Rbt.Parameter_File>
/home/j5wagner/env_00/source/rDock/rDock_2013.1_src//data/scripts/dock.prm

>  <Rbt.Receptor>
/extra/banzai2/j5wagner/CELPP/2016_10_17_rdock_implementation/normal_run/tutorialVideo/tutorial_rdock_implementation/full_week_run/4-docking/5m96/SMCSS_4wlb_tech_prep/rDockGridGenInput.prm

>  <SCORE>
-19.6283

>  <SCORE.INTER>
-12.6424

>  <SCORE.INTER.CONST>
1

>  <SCORE.INTER.POLAR>
-0.162378

>  <SCORE.INTER.REPUL>
0

>  <SCORE.INTER.ROT>
5

>  <SCORE.INTER.VDW>
-22.4903

>  <SCORE.INTER.norm>
-0.36121

>  <SCORE.INTRA>
-0.211991

>  <SCORE.INTRA.DIHEDRAL>
0.563811

>  <SCORE.INTRA.DIHEDRAL.0>
9.74364

>  <SCORE.INTRA.POLAR>
0

>  <SCORE.INTRA.POLAR.0>
0

>  <SCORE.INTRA.REPUL>
-0.108387

>  <SCORE.INTRA.REPUL.0>
0.108387

>  <SCORE.INTRA.VDW>
0.0480393

>  <SCORE.INTRA.VDW.0>
-2.87247

>  <SCORE.INTRA.norm>
-0.0060569

>  <SCORE.RESTR>
0

>  <SCORE.RESTR.CAVITY>
0

>  <SCORE.RESTR.norm>
0

>  <SCORE.SYSTEM>
-6.77393

>  <SCORE.SYSTEM.CONST>
0

>  <SCORE.SYSTEM.DIHEDRAL>
1.14882

>  <SCORE.SYSTEM.POLAR>
-1.89999

>  <SCORE.SYSTEM.VDW>
-0.888364

>  <SCORE.SYSTEM.norm>
-0.193541

>  <SCORE.heavy>
35

>  <SCORE.norm>
-0.560808

$$$$

  rDOCK(R)          3D
libRbt.so/2013.1/901 2013/11/27
 36 40  0  0  0  0  0  0  0  0999 V2000
   10.4409  -28.2349   -3.2293 C   0  0  0  0  0  0
   11.3262  -29.4661   -3.4595 C   0  0  0  0  0  0
    8.9600  -28.6284   -3.0834 C   0  0  0  0  0  0
    8.7280  -29.3316   -1.8038 N   0  0  0  0  0  0
    7.3248  -29.7871   -1.7245 C   0  0  0  0  0  0
    7.2474  -31.1995   -1.1757 C   0  0  0  0  0  0
    7.1606  -32.3613   -2.0006 C   0  0  0  0  0  0
    7.1030  -32.2270   -3.5051 C   0  0  0  0  0  0
    7.1622  -33.6545   -1.4001 C   0  0  0  0  0  0
    7.0890  -34.8317   -2.2237 N   0  0  0  0  0  0
    8.0905  -35.4459   -2.7846 C   0  0  0  0  0  0
    9.3825  -34.9235   -2.6790 O   0  0  0  0  0  0
    7.8327  -36.6713   -3.5804 C   0  0  0  0  0  0
    8.8708  -37.5401   -3.9503 C   0  0  0  0  0  0
    8.6034  -38.6475   -4.6896 N   0  0  0  0  0  0
    7.3349  -38.9455   -5.0760 C   0  0  0  0  0  0
    7.0747  -40.1423   -5.9284 C   0  0  0  0  0  0
    6.3120  -38.1224   -4.7296 N   0  0  0  0  0  0
    6.5315  -37.0036   -3.9924 C   0  0  0  0  0  0
    7.1610  -33.7598    0.0044 C   0  0  0  0  0  0
    7.2165  -32.6256    0.7386 N   0  0  0  0  0  0
    7.2338  -32.4694    2.0690 C   0  0  0  0  0  0
    7.3010  -31.1110    2.3179 C   0  0  0  0  0  0
    7.3240  -30.4258    1.1500 N   0  0  0  0  0  0
    7.2690  -31.3956    0.2112 C   0  0  0  0  0  0
    9.0577  -28.4402   -0.6713 C   0  0  0  0  0  0
   10.5413  -28.0743   -0.7120 C   0  0  0  0  0  0
   10.8770  -27.5073   -2.0255 N   0  0  0  0  0  0
   11.5090  -26.2135   -2.1131 C   0  0  0  0  0  0
   11.2523  -25.3371   -1.2414 O   0  0  0  0  0  0
   12.5280  -25.9021   -3.1927 C   0  0  0  0  0  0
   13.1513  -24.5171   -2.9975 C   0  0  0  0  0  0
   14.5108  -24.7309   -2.3301 C   0  0  0  0  0  0
   14.7461  -26.2363   -2.2530 C   0  0  0  0  0  0
   13.6967  -26.8816   -3.1434 C   0  0  0  0  0  0
    9.5930  -34.0948   -2.1387 H   0  0  0  0  0  0
  1  2  1  0  0  0
  1  3  1  0  0  0
  3  4  1  0  0  0
  4  5  1  0  0  0
  5  6  1  0  0  0
  6  7  2  0  0  0
  7  8  1  0  0  0
  7  9  1  0  0  0
  9 10  1  0  0  0
 10 11  2  0  0  0
 11 12  1  0  0  0
 11 13  1  0  0  0
 13 14  2  0  0  0
 14 15  1  0  0  0
 15 16  2  0  0  0
 16 17  1  0  0  0
 16 18  1  0  0  0
 18 19  2  0  0  0
  9 20  2  0  0  0
 20 21  1  0  0  0
 21 22  1  0  0  0
 22 23  2  0  0  0
 23 24  1  0  0  0
 24 25  2  0  0  0
  4 26  1  0  0  0
 26 27  1  0  0  0
 27 28  1  0  0  0
 28 29  1  0  0  0
 29 30  2  0  0  0
 29 31  1  0  0  0
 31 32  1  0  0  0
 32 33  1  0  0  0
 33 34  1  0  0  0
 34 35  1  0  0  0
 28  1  1  0  0  0
 35 31  1  0  0  0
 25  6  1  0  0  0
 19 13  1  0  0  0
 25 21  1  0  0  0
 12 36  1  0  0  0
M  END
>  <CHROM.0>
7.57903303,60.36899903,-170.93838144,-63.25498818,-176.72216279

>  <CHROM.1>
136.99528354,-96.03329678,85.87633787,3.05131458,-165.29964477,-174.57383937
9.13813024,-31.44725828,-2.16850206,-0.97118656,-0.78363953,-2.55136121

>  <RI>
0

>  <Rbt.Current_Directory>
/extra/banzai2/j5wagner/CELPP/2016_10_17_rdock_implementation/normal_run/tutorialVideo/tutorial_rdock_implementation/full_week_run/4-docking/5m96/SMCSS_4wlb_docking

>  <Rbt.Executable>
rbdock ($Id: //depot/dev/client3/rdock/2013.1/src/exe/rbdock.cxx#4 $)

>  <Rbt.Library>
libRbt.so (2013.1, Build901 2013/11/27)

>  <Rbt.Parameter_File>
/home/j5wagner/env_00/source/rDock/rDock_2013.1_src//data/scripts/dock.prm

>  <Rbt.Receptor>
/extra/banzai2/j5wagner/CELPP/2016_10_17_rdock_implementation/normal_run/tutorialVideo/tutorial_rdock_implementation/full_week_run/4-docking/5m96/SMCSS_4wlb_tech_prep/rDockGridGenInput.prm

>  <SCORE>
-19.2301

>  <SCORE.INTER>
-12.3918

>  <SCORE.INTER.CONST>
1

>  <SCORE.INTER.POLAR>
-0.194853

>  <SCORE.INTER.REPUL>
0

>  <SCORE.INTER.ROT>
5

>  <SCORE.INTER.VDW>
-22.1293

>  <SCORE.INTER.norm>
-0.354052

>  <SCORE.INTRA>
-0.287863

>  <SCORE.INTRA.DIHEDRAL>
0.800402

>  <SCORE.INTRA.DIHEDRAL.0>
9.74364

>  <SCORE.INTRA.POLAR>
0

>  <SCORE.INTRA.POLAR.0>
0

>  <SCORE.INTRA.REPUL>
-0.108387

>  <SCORE.INTRA.REPUL.0>
0.108387

>  <SCORE.INTRA.VDW>
-0.146128

>  <SCORE.INTRA.VDW.0>
-2.87247

>  <SCORE.INTRA.norm>
-0.00822465

>  <SCORE.RESTR>
0

>  <SCORE.RESTR.CAVITY>
0

>  <SCORE.RESTR.norm>
0

>  <SCORE.SYSTEM>
-6.55046

>  <SCORE.SYSTEM.CONST>
0

>  <SCORE.SYSTEM.DIHEDRAL>
0.277729

>  <SCORE.SYSTEM.POLAR>
-1.89639

>  <SCORE.SYSTEM.VDW>
-0.241587

>  <SCORE.SYSTEM.norm>
-0.187156

>  <SCORE.heavy>
35

>  <SCORE.norm>
-0.549432

$$$$

  rDOCK(R)          3D
libRbt.so/2013.1/901 2013/11/27
 36 40  0  0  0  0  0  0  0  0999 V2000
   10.3630  -28.5031   -3.5028 C   0  0  0  0  0  0
   11.1733  -29.7903   -3.7004 C   0  0  0  0  0  0
    8.8870  -28.8114   -3.1936 C   0  0  0  0  0  0
    8.7448  -29.3928   -1.8417 N   0  0  0  0  0  0
    7.3375  -29.7722   -1.6001 C   0  0  0  0  0  0
    7.2466  -31.1870   -1.0594 C   0  0  0  0  0  0
    7.1535  -32.3434   -1.8909 C   0  0  0  0  0  0
    7.1029  -32.2004   -3.3949 C   0  0  0  0  0  0
    7.1423  -33.6399   -1.2975 C   0  0  0  0  0  0
    7.0629  -34.8119   -2.1279 N   0  0  0  0  0  0
    8.0516  -35.3871   -2.7496 C   0  0  0  0  0  0
    9.3292  -34.8220   -2.7103 O   0  0  0  0  0  0
    7.7910  -36.6138   -3.5425 C   0  0  0  0  0  0
    8.8296  -37.4751   -3.9277 C   0  0  0  0  0  0
    8.5595  -38.5839   -4.6639 N   0  0  0  0  0  0
    7.2878  -38.8905   -5.0324 C   0  0  0  0  0  0
    7.0238  -40.0887   -5.8817 C   0  0  0  0  0  0
    6.2642  -38.0748   -4.6709 N   0  0  0  0  0  0
    6.4864  -36.9549   -3.9361 C   0  0  0  0  0  0
    7.1348  -33.7529    0.1064 C   0  0  0  0  0  0
    7.1966  -32.6231    0.8470 N   0  0  0  0  0  0
    7.2100  -32.4743    2.1782 C   0  0  0  0  0  0
    7.2872  -31.1179    2.4349 C   0  0  0  0  0  0
    7.3203  -30.4266    1.2708 N   0  0  0  0  0  0
    7.2612  -31.3908    0.3265 C   0  0  0  0  0  0
    9.2123  -28.4263   -0.8253 C   0  0  0  0  0  0
   10.6995  -28.1367   -1.0278 C   0  0  0  0  0  0
   10.9362  -27.6988   -2.4104 N   0  0  0  0  0  0
   11.6091  -26.4486   -2.6665 C   0  0  0  0  0  0
   11.4686  -25.4909   -1.8561 O   0  0  0  0  0  0
   12.5368  -26.2782   -3.8544 C   0  0  0  0  0  0
   11.7599  -26.2156   -5.1725 C   0  0  0  0  0  0
   11.6467  -24.7384   -5.5526 C   0  0  0  0  0  0
   12.4641  -23.9453   -4.5375 C   0  0  0  0  0  0
   13.2984  -24.9588   -3.7713 C   0  0  0  0  0  0
    9.5399  -33.9869   -2.1800 H   0  0  0  0  0  0
  1  2  1  0  0  0
  1  3  1  0  0  0
  3  4  1  0  0  0
  4  5  1  0  0  0
  5  6  1  0  0  0
  6  7  2  0  0  0
  7  8  1  0  0  0
  7  9  1  0  0  0
  9 10  1  0  0  0
 10 11  2  0  0  0
 11 12  1  0  0  0
 11 13  1  0  0  0
 13 14  2  0  0  0
 14 15  1  0  0  0
 15 16  2  0  0  0
 16 17  1  0  0  0
 16 18  1  0  0  0
 18 19  2  0  0  0
  9 20  2  0  0  0
 20 21  1  0  0  0
 21 22  1  0  0  0
 22 23  2  0  0  0
 23 24  1  0  0  0
 24 25  2  0  0  0
  4 26  1  0  0  0
 26 27  1  0  0  0
 27 28  1  0  0  0
 28 29  1  0  0  0
 29 30  2  0  0  0
 29 31  1  0  0  0
 31 32  1  0  0  0
 32 33  1  0  0  0
 33 34  1  0  0  0
 34 35  1  0  0  0
 28  1  1  0  0  0
 35 31  1  0  0  0
 25  6  1  0  0  0
 19 13  1  0  0  0
 25 21  1  0  0  0
 12 36  1  0  0  0
M  END
>  <CHROM.0>
11.57973119,60.45746087,-163.92295216,68.35235812,-170.07076023

>  <CHROM.1>
131.04588420,-88.46465859,81.70745869,2.53898382,-162.43514011,72.34430919
8.93040520,-31.40746898,-2.46616913,-0.84877321,-1.00444847,-2.48078749

>  <RI>
0

>  <Rbt.Current_Directory>
/extra/banzai2/j5wagner/CELPP/2016_10_17_rdock_implementation/normal_run/tutorialVideo/tutorial_rdock_implementation/full_week_run/4-docking/5m96/SMCSS_4wlb_docking

>  <Rbt.Executable>
rbdock ($Id: //depot/dev/client3/rdock/2013.1/src/exe/rbdock.cxx#4 $)

>  <Rbt.Library>
libRbt.so (2013.1, Build901 2013/11/27)

>  <Rbt.Parameter_File>
/home/j5wagner/env_00/source/rDock/rDock_2013.1_src//data/scripts/dock.prm

>  <Rbt.Receptor>
/extra/banzai2/j5wagner/CELPP/2016_10_17_rdock_implementation/normal_run/tutorialVideo/tutorial_rdock_implementation/full_week_run/4-docking/5m96/SMCSS_4wlb_tech_prep/rDockGridGenInput.prm

>  <SCORE>
-19.1853

>  <SCORE.INTER>
-12.8814

>  <SCORE.INTER.CONST>
1

>  <SCORE.INTER.POLAR>
-0.259603

>  <SCORE.INTER.REPUL>
0

>  <SCORE.INTER.ROT>
5

>  <SCORE.INTER.VDW>
-22.3988

>  <SCORE.INTER.norm>
-0.36804

>  <SCORE.INTRA>
0.272345

>  <SCORE.INTRA.DIHEDRAL>
1.45557

>  <SCORE.INTRA.DIHEDRAL.0>
9.74364

>  <SCORE.INTRA.POLAR>
0

>  <SCORE.INTRA.POLAR.0>
0

>  <SCORE.INTRA.REPUL>
-0.108387

>  <SCORE.INTRA.REPUL.0>
0.108387

>  <SCORE.INTRA.VDW>
0.0864956

>  <SCORE.INTRA.VDW.0>
-2.87247

>  <SCORE.INTRA.norm>
0.00778129

>  <SCORE.RESTR>
0

>  <SCORE.RESTR.CAVITY>
0

>  <SCORE.RESTR.norm>
0

>  <SCORE.SYSTEM>
-6.57623

>  <SCORE.SYSTEM.CONST>
0

>  <SCORE.SYSTEM.DIHEDRAL>
1.04637

>  <SCORE.SYSTEM.POLAR>
-1.92238

>  <SCORE.SYSTEM.VDW>
-0.563336

>  <SCORE.SYSTEM.norm>
-0.187892

>  <SCORE.heavy>
35

>  <SCORE.norm>
-0.548151

$$$$

  rDOCK(R)          3D
libRbt.so/2013.1/901 2013/11/27
 36 40  0  0  0  0  0  0  0  0999 V2000
    7.6920  -33.0842   -4.0772 C   0  0  0  0  0  0
    6.4958  -32.4380   -3.3672 C   0  0  0  0  0  0
    8.8288  -32.0700   -4.2966 C   0  0  0  0  0  0
    9.4739  -31.7196   -3.0133 N   0  0  0  0  0  0
   10.4952  -30.6742   -3.2297 C   0  0  0  0  0  0
    9.8757  -29.2914   -3.1485 C   0  0  0  0  0  0
   10.3525  -28.1701   -3.8920 C   0  0  0  0  0  0
   11.5578  -28.3084   -4.7938 C   0  0  0  0  0  0
    9.6656  -26.9235   -3.8067 C   0  0  0  0  0  0
   10.1301  -25.7913   -4.5629 N   0  0  0  0  0  0
    9.8031  -24.5461   -4.3696 C   0  0  0  0  0  0
    8.8565  -24.2118   -3.3973 O   0  0  0  0  0  0
   10.4055  -23.4987   -5.2307 C   0  0  0  0  0  0
   10.8914  -23.7914   -6.5142 C   0  0  0  0  0  0
   11.4484  -22.8124   -7.2730 N   0  0  0  0  0  0
   11.5375  -21.5349   -6.8178 C   0  0  0  0  0  0
   12.1972  -20.4883   -7.6520 C   0  0  0  0  0  0
   11.0730  -21.2247   -5.5801 N   0  0  0  0  0  0
   10.5095  -22.1705   -4.7855 C   0  0  0  0  0  0
    8.5783  -26.7975   -2.9203 C   0  0  0  0  0  0
    8.1852  -27.8850   -2.2193 N   0  0  0  0  0  0
    7.1891  -28.0158   -1.3332 C   0  0  0  0  0  0
    7.1979  -29.3297   -0.9026 C   0  0  0  0  0  0
    8.1940  -30.0122   -1.5158 N   0  0  0  0  0  0
    8.7716  -29.0857   -2.3113 C   0  0  0  0  0  0
   10.0747  -32.9257   -2.4049 C   0  0  0  0  0  0
    8.9828  -33.9470   -2.0865 C   0  0  0  0  0  0
    8.1964  -34.2263   -3.2961 N   0  0  0  0  0  0
    8.0369  -35.5844   -3.7558 C   0  0  0  0  0  0
    8.9630  -36.4192   -3.5580 O   0  0  0  0  0  0
    6.7527  -36.0512   -4.4142 C   0  0  0  0  0  0
    6.5673  -35.4228   -5.7982 C   0  0  0  0  0  0
    7.0076  -36.4681   -6.8243 C   0  0  0  0  0  0
    7.3241  -37.7493   -6.0588 C   0  0  0  0  0  0
    6.7751  -37.5578   -4.6544 C   0  0  0  0  0  0
    8.6703  -23.2561   -3.1236 H   0  0  0  0  0  0
  1  2  1  0  0  0
  1  3  1  0  0  0
  3  4  1  0  0  0
  4  5  1  0  0  0
  5  6  1  0  0  0
  6  7  2  0  0  0
  7  8  1  0  0  0
  7  9  1  0  0  0
  9 10  1  0  0  0
 10 11  2  0  0  0
 11 12  1  0  0  0
 11 13  1  0  0  0
 13 14  2  0  0  0
 14 15  1  0  0  0
 15 16  2  0  0  0
 16 17  1  0  0  0
 16 18  1  0  0  0
 18 19  2  0  0  0
  9 20  2  0  0  0
 20 21  1  0  0  0
 21 22  1  0  0  0
 22 23  2  0  0  0
 23 24  1  0  0  0
 24 25  2  0  0  0
  4 26  1  0  0  0
 26 27  1  0  0  0
 27 28  1  0  0  0
 28 29  1  0  0  0
 29 30  2  0  0  0
 29 31  1  0  0  0
 31 32  1  0  0  0
 32 33  1  0  0  0
 33 34  1  0  0  0
 34 35  1  0  0  0
 28  1  1  0  0  0
 35 31  1  0  0  0
 25  6  1  0  0  0
 19 13  1  0  0  0
 25 21  1  0  0  0
 12 36  1  0  0  0
M  END
>  <CHROM.0>
-154.81519239,-45.97038932,-177.64574423,-176.78189559,178.61627056

>  <CHROM.1>
87.57737812,-148.84661821,-163.76359465,171.05683284,24.34695037,69.54809830
9.07785592,-29.50063705,-4.11663398,-2.31428529,1.21272121,0.61080629

>  <RI>
0

>  <Rbt.Current_Directory>
/extra/banzai2/j5wagner/CELPP/2016_10_17_rdock_implementation/normal_run/tutorialVideo/tutorial_rdock_implementation/full_week_run/4-docking/5m96/SMCSS_4wlb_docking

>  <Rbt.Executable>
rbdock ($Id: //depot/dev/client3/rdock/2013.1/src/exe/rbdock.cxx#4 $)

>  <Rbt.Library>
libRbt.so (2013.1, Build901 2013/11/27)

>  <Rbt.Parameter_File>
/home/j5wagner/env_00/source/rDock/rDock_2013.1_src//data/scripts/dock.prm

>  <Rbt.Receptor>
/extra/banzai2/j5wagner/CELPP/2016_10_17_rdock_implementation/normal_run/tutorialVideo/tutorial_rdock_implementation/full_week_run/4-docking/5m96/SMCSS_4wlb_tech_prep/rDockGridGenInput.prm

>  <SCORE>
-19.1723

>  <SCORE.INTER>
-16.0495

>  <SCORE.INTER.CONST>
1

>  <SCORE.INTER.POLAR>
-0.375014

>  <SCORE.INTER.REPUL>
0.0795243

>  <SCORE.INTER.ROT>
5

>  <SCORE.INTER.VDW>
-25.572

>  <SCORE.INTER.norm>
-0.458556

>  <SCORE.INTRA>
1.53316

>  <SCORE.INTRA.DIHEDRAL>
-3.73512

>  <SCORE.INTRA.DIHEDRAL.0>
9.74364

>  <SCORE.INTRA.POLAR>
0

>  <SCORE.INTRA.POLAR.0>
0

>  <SCORE.INTRA.REPUL>
0.346876

>  <SCORE.INTRA.REPUL.0>
0.108387

>  <SCORE.INTRA.VDW>
1.66634

>  <SCORE.INTRA.VDW.0>
-2.87247

>  <SCORE.INTRA.norm>
0.0438045

>  <SCORE.RESTR>
0

>  <SCORE.RESTR.CAVITY>
0

>  <SCORE.RESTR.norm>
0

>  <SCORE.SYSTEM>
-4.65595

>  <SCORE.SYSTEM.CONST>
0

>  <SCORE.SYSTEM.DIHEDRAL>
1.87069

>  <SCORE.SYSTEM.POLAR>
-1.61731

>  <SCORE.SYSTEM.VDW>
-0.092436

>  <SCORE.SYSTEM.norm>
-0.133027

>  <SCORE.heavy>
35

>  <SCORE.norm>
-0.547779

$$$$

  rDOCK(R)          3D
libRbt.so/2013.1/901 2013/11/27
 36 40  0  0  0  0  0  0  0  0999 V2000
   11.4481  -24.5966   -4.7658 C   0  0  0  0  0  0
   12.5943  -25.2022   -3.9460 C   0  0  0  0  0  0
   10.4626  -25.6806   -5.2379 C   0  0  0  0  0  0
    9.6853  -26.2144   -4.0991 N   0  0  0  0  0  0
    8.8163  -27.3193   -4.5539 C   0  0  0  0  0  0
    8.9486  -28.5207   -3.6366 C   0  0  0  0  0  0
    8.6814  -29.8605   -4.0502 C   0  0  0  0  0  0
    8.2040  -30.1448   -5.4560 C   0  0  0  0  0  0
    8.8992  -30.9364   -3.1403 C   0  0  0  0  0  0
    8.6461  -32.2913   -3.5522 N   0  0  0  0  0  0
    7.5023  -32.7822   -3.9338 C   0  0  0  0  0  0
    6.3507  -31.9914   -3.8936 O   0  0  0  0  0  0
    7.4303  -34.2027   -4.3561 C   0  0  0  0  0  0
    6.2448  -34.7620   -4.8568 C   0  0  0  0  0  0
    6.2083  -36.0692   -5.2235 N   0  0  0  0  0  0
    7.3110  -36.8576   -5.1268 C   0  0  0  0  0  0
    7.2314  -38.3024   -5.4910 C   0  0  0  0  0  0
    8.4715  -36.3405   -4.6473 N   0  0  0  0  0  0
    8.5550  -35.0397   -4.2675 C   0  0  0  0  0  0
    9.2913  -30.6494   -1.8182 C   0  0  0  0  0  0
    9.5043  -29.3598   -1.4718 N   0  0  0  0  0  0
    9.8836  -28.8429   -0.2956 C   0  0  0  0  0  0
    9.9647  -27.4725   -0.4609 C   0  0  0  0  0  0
    9.6367  -27.1383   -1.7316 N   0  0  0  0  0  0
    9.3612  -28.3266   -2.3121 C   0  0  0  0  0  0
    8.8857  -25.1339   -3.4836 C   0  0  0  0  0  0
    9.8126  -24.0569   -2.9201 C   0  0  0  0  0  0
   10.7262  -23.5884   -3.9714 N   0  0  0  0  0  0
   10.8078  -22.1822   -4.2829 C   0  0  0  0  0  0
    9.7827  -21.4571   -4.1521 O   0  0  0  0  0  0
   12.1163  -21.5391   -4.7014 C   0  0  0  0  0  0
   12.6216  -22.1029   -6.0325 C   0  0  0  0  0  0
   12.2368  -21.0957   -7.1172 C   0  0  0  0  0  0
   11.6274  -19.8853   -6.4162 C   0  0  0  0  0  0
   11.9414  -20.0419   -4.9373 C   0  0  0  0  0  0
    6.3606  -31.0292   -3.5824 H   0  0  0  0  0  0
  1  2  1  0  0  0
  1  3  1  0  0  0
  3  4  1  0  0  0
  4  5  1  0  0  0
  5  6  1  0  0  0
  6  7  2  0  0  0
  7  8  1  0  0  0
  7  9  1  0  0  0
  9 10  1  0  0  0
 10 11  2  0  0  0
 11 12  1  0  0  0
 11 13  1  0  0  0
 13 14  2  0  0  0
 14 15  1  0  0  0
 15 16  2  0  0  0
 16 17  1  0  0  0
 16 18  1  0  0  0
 18 19  2  0  0  0
  9 20  2  0  0  0
 20 21  1  0  0  0
 21 22  1  0  0  0
 22 23  2  0  0  0
 23 24  1  0  0  0
 24 25  2  0  0  0
  4 26  1  0  0  0
 26 27  1  0  0  0
 27 28  1  0  0  0
 28 29  1  0  0  0
 29 30  2  0  0  0
 29 31  1  0  0  0
 31 32  1  0  0  0
 32 33  1  0  0  0
 33 34  1  0  0  0
 34 35  1  0  0  0
 28  1  1  0  0  0
 35 31  1  0  0  0
 25  6  1  0  0  0
 19 13  1  0  0  0
 25 21  1  0  0  0
 12 36  1  0  0  0
M  END
>  <CHROM.0>
-1.32125608,60.48311198,-176.09935523,-177.70678795,-177.03963614

>  <CHROM.1>
131.68649703,-154.78961203,-61.32352464,0.53596443,-175.89728066,64.23704090
9.43146777,-28.21220819,-4.03498720,-0.03456484,-1.27819225,-1.64065839

>  <RI>
0

>  <Rbt.Current_Directory>
/extra/banzai2/j5wagner/CELPP/2016_10_17_rdock_implementation/normal_run/tutorialVideo/tutorial_rdock_implementation/full_week_run/4-docking/5m96/SMCSS_4wlb_docking

>  <Rbt.Executable>
rbdock ($Id: //depot/dev/client3/rdock/2013.1/src/exe/rbdock.cxx#4 $)

>  <Rbt.Library>
libRbt.so (2013.1, Build901 2013/11/27)

>  <Rbt.Parameter_File>
/home/j5wagner/env_00/source/rDock/rDock_2013.1_src//data/scripts/dock.prm

>  <Rbt.Receptor>
/extra/banzai2/j5wagner/CELPP/2016_10_17_rdock_implementation/normal_run/tutorialVideo/tutorial_rdock_implementation/full_week_run/4-docking/5m96/SMCSS_4wlb_tech_prep/rDockGridGenInput.prm

>  <SCORE>
-18.4911

>  <SCORE.INTER>
-14.7321

>  <SCORE.INTER.CONST>
1

>  <SCORE.INTER.POLAR>
0

>  <SCORE.INTER.REPUL>
0

>  <SCORE.INTER.ROT>
5

>  <SCORE.INTER.VDW>
-25.1321

>  <SCORE.INTER.norm>
-0.420917

>  <SCORE.INTRA>
2.80652

>  <SCORE.INTRA.DIHEDRAL>
-1.09755

>  <SCORE.INTRA.DIHEDRAL.0>
9.74364

>  <SCORE.INTRA.POLAR>
0

>  <SCORE.INTRA.POLAR.0>
0

>  <SCORE.INTRA.REPUL>
0.231082

>  <SCORE.INTRA.REPUL.0>
0.108387

>  <SCORE.INTRA.VDW>
2.19988

>  <SCORE.INTRA.VDW.0>
-2.87247

>  <SCORE.INTRA.norm>
0.0801863

>  <SCORE.RESTR>
0.00980501

>  <SCORE.RESTR.CAVITY>
0.00980501

>  <SCORE.RESTR.norm>
0.000280143

>  <SCORE.SYSTEM>
-6.57532

>  <SCORE.SYSTEM.CONST>
0

>  <SCORE.SYSTEM.DIHEDRAL>
0.0762376

>  <SCORE.SYSTEM.POLAR>
-1.89517

>  <SCORE.SYSTEM.VDW>
-0.169846

>  <SCORE.SYSTEM.norm>
-0.187866

>  <SCORE.heavy>
35

>  <SCORE.norm>
-0.528317

$$$$

  rDOCK(R)          3D
libRbt.so/2013.1/901 2013/11/27
 36 40  0  0  0  0  0  0  0  0999 V2000
   11.7729  -25.7850   -3.0743 C   0  0  0  0  0  0
   12.3460  -25.0543   -4.2951 C   0  0  0  0  0  0
   10.3979  -26.4030   -3.3851 C   0  0  0  0  0  0
   10.5351  -27.5505   -4.3073 N   0  0  0  0  0  0
    9.2005  -28.0691   -4.6711 C   0  0  0  0  0  0
    8.7956  -29.2061   -3.7516 C   0  0  0  0  0  0
    8.6544  -30.5584   -4.1864 C   0  0  0  0  0  0
    8.8737  -30.9207   -5.6375 C   0  0  0  0  0  0
    8.3377  -31.5749   -3.2381 C   0  0  0  0  0  0
    8.2070  -32.9427   -3.6641 N   0  0  0  0  0  0
    7.0969  -33.6121   -3.7840 C   0  0  0  0  0  0
    5.8826  -33.0306   -3.4089 O   0  0  0  0  0  0
    7.1467  -35.0134   -4.2690 C   0  0  0  0  0  0
    5.9825  -35.7832   -4.4145 C   0  0  0  0  0  0
    6.0631  -37.0673   -4.8493 N   0  0  0  0  0  0
    7.2600  -37.6297   -5.1627 C   0  0  0  0  0  0
    7.3257  -39.0572   -5.5922 C   0  0  0  0  0  0
    8.4015  -36.9058   -5.0327 N   0  0  0  0  0  0
    8.3700  -35.6191   -4.6005 C   0  0  0  0  0  0
    8.0830  -31.2120   -1.9012 C   0  0  0  0  0  0
    8.2044  -29.9121   -1.5490 N   0  0  0  0  0  0
    8.0242  -29.3300   -0.3560 C   0  0  0  0  0  0
    8.2760  -27.9804   -0.5199 C   0  0  0  0  0  0
    8.6097  -27.7237   -1.8071 N   0  0  0  0  0  0
    8.5508  -28.9366   -2.3989 C   0  0  0  0  0  0
   11.3579  -28.6064   -3.6796 C   0  0  0  0  0  0
   12.7686  -28.0795   -3.4166 C   0  0  0  0  0  0
   12.6970  -26.8413   -2.6283 N   0  0  0  0  0  0
   13.4277  -26.7311   -1.3893 C   0  0  0  0  0  0
   13.6136  -27.7620   -0.6847 O   0  0  0  0  0  0
   14.0367  -25.4152   -0.9442 C   0  0  0  0  0  0
   14.5532  -25.4909    0.4954 C   0  0  0  0  0  0
   16.0649  -25.7087    0.4150 C   0  0  0  0  0  0
   16.4566  -25.6293   -1.0574 C   0  0  0  0  0  0
   15.2543  -25.0591   -1.7919 C   0  0  0  0  0  0
    4.9995  -33.5183   -3.4804 H   0  0  0  0  0  0
  1  2  1  0  0  0
  1  3  1  0  0  0
  3  4  1  0  0  0
  4  5  1  0  0  0
  5  6  1  0  0  0
  6  7  2  0  0  0
  7  8  1  0  0  0
  7  9  1  0  0  0
  9 10  1  0  0  0
 10 11  2  0  0  0
 11 12  1  0  0  0
 11 13  1  0  0  0
 13 14  2  0  0  0
 14 15  1  0  0  0
 15 16  2  0  0  0
 16 17  1  0  0  0
 16 18  1  0  0  0
 18 19  2  0  0  0
  9 20  2  0  0  0
 20 21  1  0  0  0
 21 22  1  0  0  0
 22 23  2  0  0  0
 23 24  1  0  0  0
 24 25  2  0  0  0
  4 26  1  0  0  0
 26 27  1  0  0  0
 27 28  1  0  0  0
 28 29  1  0  0  0
 29 30  2  0  0  0
 29 31  1  0  0  0
 31 32  1  0  0  0
 32 33  1  0  0  0
 33 34  1  0  0  0
 34 35  1  0  0  0
 28  1  1  0  0  0
 35 31  1  0  0  0
 25  6  1  0  0  0
 19 13  1  0  0  0
 25 21  1  0  0  0
 12 36  1  0  0  0
M  END
>  <CHROM.0>
1.00076329,60.21954563,-3.95266094,-179.93909862,177.66946792

>  <CHROM.1>
-93.75226278,-112.71795113,-106.45691166,-179.58607005,179.84398277,170.50865283
10.06011017,-30.02736218,-2.98647439,0.99212485,-0.09650593,0.23453672

>  <RI>
0

>  <Rbt.Current_Directory>
/extra/banzai2/j5wagner/CELPP/2016_10_17_rdock_implementation/normal_run/tutorialVideo/tutorial_rdock_implementation/full_week_run/4-docking/5m96/SMCSS_4wlb_docking

>  <Rbt.Executable>
rbdock ($Id: //depot/dev/client3/rdock/2013.1/src/exe/rbdock.cxx#4 $)

>  <Rbt.Library>
libRbt.so (2013.1, Build901 2013/11/27)

>  <Rbt.Parameter_File>
/home/j5wagner/env_00/source/rDock/rDock_2013.1_src//data/scripts/dock.prm

>  <Rbt.Receptor>
/extra/banzai2/j5wagner/CELPP/2016_10_17_rdock_implementation/normal_run/tutorialVideo/tutorial_rdock_implementation/full_week_run/4-docking/5m96/SMCSS_4wlb_tech_prep/rDockGridGenInput.prm

>  <SCORE>
-17.1023

>  <SCORE.INTER>
-13.0345

>  <SCORE.INTER.CONST>
1

>  <SCORE.INTER.POLAR>
0

>  <SCORE.INTER.REPUL>
0.0289908

>  <SCORE.INTER.ROT>
5

>  <SCORE.INTER.VDW>
-23.5795

>  <SCORE.INTER.norm>
-0.372415

>  <SCORE.INTRA>
2.80023

>  <SCORE.INTRA.DIHEDRAL>
-0.923605

>  <SCORE.INTRA.DIHEDRAL.0>
9.74364

>  <SCORE.INTRA.POLAR>
0

>  <SCORE.INTRA.POLAR.0>
0

>  <SCORE.INTRA.REPUL>
-0.108387

>  <SCORE.INTRA.REPUL.0>
0.108387

>  <SCORE.INTRA.VDW>
3.80397

>  <SCORE.INTRA.VDW.0>
-2.87247

>  <SCORE.INTRA.norm>
0.0800065

>  <SCORE.RESTR>
0

>  <SCORE.RESTR.CAVITY>
0

>  <SCORE.RESTR.norm>
0

>  <SCORE.SYSTEM>
-6.86805

>  <SCORE.SYSTEM.CONST>
0

>  <SCORE.SYSTEM.DIHEDRAL>
0.0517984

>  <SCORE.SYSTEM.POLAR>
-1.89799

>  <SCORE.SYSTEM.VDW>
-0.440779

>  <SCORE.SYSTEM.norm>
-0.19623

>  <SCORE.heavy>
35

>  <SCORE.norm>
-0.488638

$$$$

  rDOCK(R)          3D
libRbt.so/2013.1/901 2013/11/27
 36 40  0  0  0  0  0  0  0  0999 V2000
   10.0933  -25.2355   -4.0799 C   0  0  0  0  0  0
    8.8142  -25.4876   -4.8879 C   0  0  0  0  0  0
   10.3520  -26.3689   -3.0711 C   0  0  0  0  0  0
   10.7507  -27.6103   -3.7680 N   0  0  0  0  0  0
   10.8995  -28.7112   -2.7941 C   0  0  0  0  0  0
    9.6004  -29.4816   -2.6497 C   0  0  0  0  0  0
    9.3965  -30.7891   -3.1849 C   0  0  0  0  0  0
   10.4901  -31.4695   -3.9761 C   0  0  0  0  0  0
    8.1660  -31.4671   -2.9412 C   0  0  0  0  0  0
    7.9564  -32.7906   -3.4645 N   0  0  0  0  0  0
    8.5935  -33.8703   -3.1136 C   0  0  0  0  0  0
    9.6467  -33.7975   -2.1978 O   0  0  0  0  0  0
    8.2236  -35.1635   -3.7398 C   0  0  0  0  0  0
    8.9896  -36.3225   -3.5416 C   0  0  0  0  0  0
    8.6309  -37.4882   -4.1389 N   0  0  0  0  0  0
    7.5257  -37.5640   -4.9262 C   0  0  0  0  0  0
    7.1807  -38.8449   -5.6093 C   0  0  0  0  0  0
    6.7660  -36.4575   -5.1326 N   0  0  0  0  0  0
    7.0862  -35.2702   -4.5573 C   0  0  0  0  0  0
    7.1380  -30.7976   -2.2494 C   0  0  0  0  0  0
    7.3752  -29.5489   -1.7876 N   0  0  0  0  0  0
    6.5705  -28.7236   -1.1051 C   0  0  0  0  0  0
    7.2859  -27.5651   -0.8646 C   0  0  0  0  0  0
    8.5278  -27.6682   -1.3950 N   0  0  0  0  0  0
    8.5351  -28.8994   -1.9507 C   0  0  0  0  0  0
   12.0098  -27.3896   -4.5108 C   0  0  0  0  0  0
   11.7989  -26.3260   -5.5882 C   0  0  0  0  0  0
   11.2514  -25.1053   -4.9804 N   0  0  0  0  0  0
   11.9174  -23.8406   -5.1753 C   0  0  0  0  0  0
   13.1728  -23.8140   -5.3061 O   0  0  0  0  0  0
   11.1371  -22.5453   -5.2934 C   0  0  0  0  0  0
   12.0434  -21.3741   -5.6831 C   0  0  0  0  0  0
   11.8668  -21.1558   -7.1865 C   0  0  0  0  0  0
   10.7664  -22.1027   -7.6559 C   0  0  0  0  0  0
   10.0918  -22.6332   -6.4014 C   0  0  0  0  0  0
   10.1903  -34.6061   -1.9266 H   0  0  0  0  0  0
  1  2  1  0  0  0
  1  3  1  0  0  0
  3  4  1  0  0  0
  4  5  1  0  0  0
  5  6  1  0  0  0
  6  7  2  0  0  0
  7  8  1  0  0  0
  7  9  1  0  0  0
  9 10  1  0  0  0
 10 11  2  0  0  0
 11 12  1  0  0  0
 11 13  1  0  0  0
 13 14  2  0  0  0
 14 15  1  0  0  0
 15 16  2  0  0  0
 16 17  1  0  0  0
 16 18  1  0  0  0
 18 19  2  0  0  0
  9 20  2  0  0  0
 20 21  1  0  0  0
 21 22  1  0  0  0
 22 23  2  0  0  0
 23 24  1  0  0  0
 24 25  2  0  0  0
  4 26  1  0  0  0
 26 27  1  0  0  0
 27 28  1  0  0  0
 28 29  1  0  0  0
 29 30  2  0  0  0
 29 31  1  0  0  0
 31 32  1  0  0  0
 32 33  1  0  0  0
 33 34  1  0  0  0
 34 35  1  0  0  0
 28  1  1  0  0  0
 35 31  1  0  0  0
 25  6  1  0  0  0
 19 13  1  0  0  0
 25 21  1  0  0  0
 12 36  1  0  0  0
M  END
>  <CHROM.0>
-156.04534967,61.45710582,0.71415451,63.12157899,179.09298099

>  <CHROM.1>
91.90123177,106.79166037,66.35136909,-177.54072889,171.12009323,-172.27710135
9.49321894,-29.19614511,-3.99839608,1.07516820,0.99653473,0.29960790

>  <RI>
0

>  <Rbt.Current_Directory>
/extra/banzai2/j5wagner/CELPP/2016_10_17_rdock_implementation/normal_run/tutorialVideo/tutorial_rdock_implementation/full_week_run/4-docking/5m96/SMCSS_4wlb_docking

>  <Rbt.Executable>
rbdock ($Id: //depot/dev/client3/rdock/2013.1/src/exe/rbdock.cxx#4 $)

>  <Rbt.Library>
libRbt.so (2013.1, Build901 2013/11/27)

>  <Rbt.Parameter_File>
/home/j5wagner/env_00/source/rDock/rDock_2013.1_src//data/scripts/dock.prm

>  <Rbt.Receptor>
/extra/banzai2/j5wagner/CELPP/2016_10_17_rdock_implementation/normal_run/tutorialVideo/tutorial_rdock_implementation/full_week_run/4-docking/5m96/SMCSS_4wlb_tech_prep/rDockGridGenInput.prm

>  <SCORE>
-16.7431

>  <SCORE.INTER>
-6.90189

>  <SCORE.INTER.CONST>
1

>  <SCORE.INTER.POLAR>
0

>  <SCORE.INTER.REPUL>
0

>  <SCORE.INTER.ROT>
5

>  <SCORE.INTER.VDW>
-17.3019

>  <SCORE.INTER.norm>
-0.197197

>  <SCORE.INTRA>
-0.35036

>  <SCORE.INTRA.DIHEDRAL>
-1.57577

>  <SCORE.INTRA.DIHEDRAL.0>
9.74364

>  <SCORE.INTRA.POLAR>
0

>  <SCORE.INTRA.POLAR.0>
0

>  <SCORE.INTRA.REPUL>
-0.108387

>  <SCORE.INTRA.REPUL.0>
0.108387

>  <SCORE.INTRA.VDW>
0.979463

>  <SCORE.INTRA.VDW.0>
-2.87247

>  <SCORE.INTRA.norm>
-0.0100103

>  <SCORE.RESTR>
0

>  <SCORE.RESTR.CAVITY>
0

>  <SCORE.RESTR.norm>
0

>  <SCORE.SYSTEM>
-9.49083

>  <SCORE.SYSTEM.CONST>
0

>  <SCORE.SYSTEM.DIHEDRAL>
0.868813

>  <SCORE.SYSTEM.POLAR>
-2.63206

>  <SCORE.SYSTEM.VDW>
-0.976247

>  <SCORE.SYSTEM.norm>
-0.271167

>  <SCORE.heavy>
35

>  <SCORE.norm>
-0.478374

$$$$

  rDOCK(R)          3D
libRbt.so/2013.1/901 2013/11/27
 36 40  0  0  0  0  0  0  0  0999 V2000
   11.3091  -24.8174   -3.7894 C   0  0  0  0  0  0
   11.7225  -24.8789   -2.3137 C   0  0  0  0  0  0
   11.3702  -26.2075   -4.4473 C   0  0  0  0  0  0
   10.2918  -27.0787   -3.9336 N   0  0  0  0  0  0
   10.4247  -28.4361   -4.5015 C   0  0  0  0  0  0
    9.7399  -29.4598   -3.6153 C   0  0  0  0  0  0
    9.4628  -30.7981   -4.0272 C   0  0  0  0  0  0
    9.8184  -31.2567   -5.4230 C   0  0  0  0  0  0
    8.8781  -31.7137   -3.1037 C   0  0  0  0  0  0
    8.6078  -33.0684   -3.5050 N   0  0  0  0  0  0
    7.4924  -33.5191   -4.0027 C   0  0  0  0  0  0
    6.3837  -32.6760   -4.1175 O   0  0  0  0  0  0
    7.3998  -34.9480   -4.3915 C   0  0  0  0  0  0
    8.5115  -35.8018   -4.3259 C   0  0  0  0  0  0
    8.3968  -37.1021   -4.7006 N   0  0  0  0  0  0
    7.2115  -37.6072   -5.1331 C   0  0  0  0  0  0
    7.1238  -39.0268   -5.5844 C   0  0  0  0  0  0
    6.1198  -36.8028   -5.2042 N   0  0  0  0  0  0
    6.1872  -35.4962   -4.8413 C   0  0  0  0  0  0
    8.5030  -31.2551   -1.8259 C   0  0  0  0  0  0
    8.7640  -29.9697   -1.4971 N   0  0  0  0  0  0
    8.5130  -29.3117   -0.3575 C   0  0  0  0  0  0
    8.9780  -28.0202   -0.5229 C   0  0  0  0  0  0
    9.5140  -27.8746   -1.7581 N   0  0  0  0  0  0
    9.3588  -29.0942   -2.3179 C   0  0  0  0  0  0
    8.9733  -26.4963   -4.2624 C   0  0  0  0  0  0
    8.8152  -25.1424   -3.5706 C   0  0  0  0  0  0
    9.9471  -24.2722   -3.9183 N   0  0  0  0  0  0
    9.7072  -22.9666   -4.4833 C   0  0  0  0  0  0
    8.6932  -22.7830   -5.2126 O   0  0  0  0  0  0
   10.6101  -21.7896   -4.1673 C   0  0  0  0  0  0
   12.0020  -21.9656   -4.7810 C   0  0  0  0  0  0
   12.0307  -21.1349   -6.0649 C   0  0  0  0  0  0
   10.7130  -20.3695   -6.1390 C   0  0  0  0  0  0
   10.0625  -20.4999   -4.7715 C   0  0  0  0  0  0
    6.4124  -31.6992   -3.8571 H   0  0  0  0  0  0
  1  2  1  0  0  0
  1  3  1  0  0  0
  3  4  1  0  0  0
  4  5  1  0  0  0
  5  6  1  0  0  0
  6  7  2  0  0  0
  7  8  1  0  0  0
  7  9  1  0  0  0
  9 10  1  0  0  0
 10 11  2  0  0  0
 11 12  1  0  0  0
 11 13  1  0  0  0
 13 14  2  0  0  0
 14 15  1  0  0  0
 15 16  2  0  0  0
 16 17  1  0  0  0
 16 18  1  0  0  0
 18 19  2  0  0  0
  9 20  2  0  0  0
 20 21  1  0  0  0
 21 22  1  0  0  0
 22 23  2  0  0  0
 23 24  1  0  0  0
 24 25  2  0  0  0
  4 26  1  0  0  0
 26 27  1  0  0  0
 27 28  1  0  0  0
 28 29  1  0  0  0
 29 30  2  0  0  0
 29 31  1  0  0  0
 31 32  1  0  0  0
 32 33  1  0  0  0
 33 34  1  0  0  0
 34 35  1  0  0  0
 28  1  1  0  0  0
 35 31  1  0  0  0
 25  6  1  0  0  0
 19 13  1  0  0  0
 25 21  1  0  0  0
 12 36  1  0  0  0
M  END
>  <CHROM.0>
8.11364770,57.70455978,5.06724369,179.64982145,-174.52172698

>  <CHROM.1>
156.93660082,166.78065483,-92.34968372,2.24322477,-4.63685223,68.51570990
9.19419767,-28.88767881,-3.92944855,-0.01587096,1.33466135,1.58241353

>  <RI>
0

>  <Rbt.Current_Directory>
/extra/banzai2/j5wagner/CELPP/2016_10_17_rdock_implementation/normal_run/tutorialVideo/tutorial_rdock_implementation/full_week_run/4-docking/5m96/SMCSS_4wlb_docking

>  <Rbt.Executable>
rbdock ($Id: //depot/dev/client3/rdock/2013.1/src/exe/rbdock.cxx#4 $)

>  <Rbt.Library>
libRbt.so (2013.1, Build901 2013/11/27)

>  <Rbt.Parameter_File>
/home/j5wagner/env_00/source/rDock/rDock_2013.1_src//data/scripts/dock.prm

>  <Rbt.Receptor>
/extra/banzai2/j5wagner/CELPP/2016_10_17_rdock_implementation/normal_run/tutorialVideo/tutorial_rdock_implementation/full_week_run/4-docking/5m96/SMCSS_4wlb_tech_prep/rDockGridGenInput.prm

>  <SCORE>
-16.4101

>  <SCORE.INTER>
-13.1146

>  <SCORE.INTER.CONST>
1

>  <SCORE.INTER.POLAR>
-0.203183

>  <SCORE.INTER.REPUL>
0

>  <SCORE.INTER.ROT>
5

>  <SCORE.INTER.VDW>
-22.8237

>  <SCORE.INTER.norm>
-0.374702

>  <SCORE.INTRA>
3.54096

>  <SCORE.INTRA.DIHEDRAL>
-1.24503

>  <SCORE.INTRA.DIHEDRAL.0>
9.74364

>  <SCORE.INTRA.POLAR>
0

>  <SCORE.INTRA.POLAR.0>
0

>  <SCORE.INTRA.REPUL>
0.531281

>  <SCORE.INTRA.REPUL.0>
0.108387

>  <SCORE.INTRA.VDW>
1.50707

>  <SCORE.INTRA.VDW.0>
-2.87247

>  <SCORE.INTRA.norm>
0.10117

>  <SCORE.RESTR>
0

>  <SCORE.RESTR.CAVITY>
0

>  <SCORE.RESTR.norm>
0

>  <SCORE.SYSTEM>
-6.8365

>  <SCORE.SYSTEM.CONST>
0

>  <SCORE.SYSTEM.DIHEDRAL>
0.21609

>  <SCORE.SYSTEM.POLAR>
-1.92434

>  <SCORE.SYSTEM.VDW>
-0.401787

>  <SCORE.SYSTEM.norm>
-0.195329

>  <SCORE.heavy>
35

>  <SCORE.norm>
-0.46886

$$$$

  rDOCK(R)          3D
libRbt.so/2013.1/901 2013/11/27
 36 40  0  0  0  0  0  0  0  0999 V2000
    7.6562  -32.9392   -4.0931 C   0  0  0  0  0  0
    6.5569  -32.2300   -3.2923 C   0  0  0  0  0  0
    8.7605  -31.9564   -4.5216 C   0  0  0  0  0  0
    9.5578  -31.5222   -3.3546 N   0  0  0  0  0  0
   10.5479  -30.5068   -3.7684 C   0  0  0  0  0  0
   10.0461  -29.1085   -3.4599 C   0  0  0  0  0  0
   10.6713  -27.9218   -3.9484 C   0  0  0  0  0  0
   11.9228  -28.0097   -4.7916 C   0  0  0  0  0  0
   10.0903  -26.6508   -3.6656 C   0  0  0  0  0  0
   10.7051  -25.4500   -4.1652 N   0  0  0  0  0  0
   10.0969  -24.4495   -4.7343 C   0  0  0  0  0  0
    8.7231  -24.5128   -4.9829 O   0  0  0  0  0  0
   10.8899  -23.2713   -5.1636 C   0  0  0  0  0  0
   10.2763  -22.1220   -5.6849 C   0  0  0  0  0  0
   11.0313  -21.0647   -6.0803 N   0  0  0  0  0  0
   12.3858  -21.0881   -5.9713 C   0  0  0  0  0  0
   13.1951  -19.9325   -6.4575 C   0  0  0  0  0  0
   13.0044  -22.1873   -5.4683 N   0  0  0  0  0  0
   12.2909  -23.2683   -5.0614 C   0  0  0  0  0  0
    8.9560  -26.5837   -2.8333 C   0  0  0  0  0  0
    8.4201  -27.7377   -2.3754 N   0  0  0  0  0  0
    7.3541  -27.9307   -1.5873 C   0  0  0  0  0  0
    7.2177  -29.2958   -1.4151 C   0  0  0  0  0  0
    8.1933  -29.9484   -2.0907 N   0  0  0  0  0  0
    8.9056  -28.9527   -2.6617 C   0  0  0  0  0  0
   10.2249  -32.6883   -2.7375 C   0  0  0  0  0  0
    9.1771  -33.6715   -2.2160 C   0  0  0  0  0  0
    8.2488  -34.0279   -3.2979 N   0  0  0  0  0  0
    8.0310  -35.4136   -3.6351 C   0  0  0  0  0  0
    8.9720  -36.2427   -3.4908 O   0  0  0  0  0  0
    6.6750  -35.9118   -4.0975 C   0  0  0  0  0  0
    6.4334  -35.5990   -5.5769 C   0  0  0  0  0  0
    6.7292  -36.8809   -6.3569 C   0  0  0  0  0  0
    7.0141  -37.9776   -5.3353 C   0  0  0  0  0  0
    6.5806  -37.4305   -3.9851 C   0  0  0  0  0  0
    8.2593  -23.9002   -5.6406 H   0  0  0  0  0  0
  1  2  1  0  0  0
  1  3  1  0  0  0
  3  4  1  0  0  0
  4  5  1  0  0  0
  5  6  1  0  0  0
  6  7  2  0  0  0
  7  8  1  0  0  0
  7  9  1  0  0  0
  9 10  1  0  0  0
 10 11  2  0  0  0
 11 12  1  0  0  0
 11 13  1  0  0  0
 13 14  2  0  0  0
 14 15  1  0  0  0
 15 16  2  0  0  0
 16 17  1  0  0  0
 16 18  1  0  0  0
 18 19  2  0  0  0
  9 20  2  0  0  0
 20 21  1  0  0  0
 21 22  1  0  0  0
 22 23  2  0  0  0
 23 24  1  0  0  0
 24 25  2  0  0  0
  4 26  1  0  0  0
 26 27  1  0  0  0
 27 28  1  0  0  0
 28 29  1  0  0  0
 29 30  2  0  0  0
 29 31  1  0  0  0
 31 32  1  0  0  0
 32 33  1  0  0  0
 33 34  1  0  0  0
 34 35  1  0  0  0
 28  1  1  0  0  0
 35 31  1  0  0  0
 25  6  1  0  0  0
 19 13  1  0  0  0
 25 21  1  0  0  0
 12 36  1  0  0  0
M  END
>  <CHROM.0>
18.18840668,-46.17445830,33.38026851,-178.35701254,-160.99259192

>  <CHROM.1>
98.60021935,-168.82174013,134.86016251,-162.14837917,-174.88729131,79.92472030
9.28453011,-29.34102400,-4.08199593,2.06391955,-0.92034332,-2.82749978

>  <RI>
0

>  <Rbt.Current_Directory>
/extra/banzai2/j5wagner/CELPP/2016_10_17_rdock_implementation/normal_run/tutorialVideo/tutorial_rdock_implementation/full_week_run/4-docking/5m96/SMCSS_4wlb_docking

>  <Rbt.Executable>
rbdock ($Id: //depot/dev/client3/rdock/2013.1/src/exe/rbdock.cxx#4 $)

>  <Rbt.Library>
libRbt.so (2013.1, Build901 2013/11/27)

>  <Rbt.Parameter_File>
/home/j5wagner/env_00/source/rDock/rDock_2013.1_src//data/scripts/dock.prm

>  <Rbt.Receptor>
/extra/banzai2/j5wagner/CELPP/2016_10_17_rdock_implementation/normal_run/tutorialVideo/tutorial_rdock_implementation/full_week_run/4-docking/5m96/SMCSS_4wlb_tech_prep/rDockGridGenInput.prm

>  <SCORE>
-16.3248

>  <SCORE.INTER>
-18.273

>  <SCORE.INTER.CONST>
1

>  <SCORE.INTER.POLAR>
-0.90206

>  <SCORE.INTER.REPUL>
0

>  <SCORE.INTER.ROT>
5

>  <SCORE.INTER.VDW>
-25.606

>  <SCORE.INTER.norm>
-0.522085

>  <SCORE.INTRA>
3.74289

>  <SCORE.INTRA.DIHEDRAL>
-0.639227

>  <SCORE.INTRA.DIHEDRAL.0>
9.74364

>  <SCORE.INTRA.POLAR>
0

>  <SCORE.INTRA.POLAR.0>
0

>  <SCORE.INTRA.REPUL>
0.532243

>  <SCORE.INTRA.REPUL.0>
0.108387

>  <SCORE.INTRA.VDW>
1.40129

>  <SCORE.INTRA.VDW.0>
-2.87247

>  <SCORE.INTRA.norm>
0.10694

>  <SCORE.RESTR>
0

>  <SCORE.RESTR.CAVITY>
0

>  <SCORE.RESTR.norm>
0

>  <SCORE.SYSTEM>
-1.79468

>  <SCORE.SYSTEM.CONST>
0

>  <SCORE.SYSTEM.DIHEDRAL>
3.33498

>  <SCORE.SYSTEM.POLAR>
-0.859767

>  <SCORE.SYSTEM.REPUL>
0.00133267

>  <SCORE.SYSTEM.VDW>
-0.545623

>  <SCORE.SYSTEM.norm>
-0.0512766

>  <SCORE.heavy>
35

>  <SCORE.norm>
-0.466422

$$$$

  rDOCK(R)          3D
libRbt.so/2013.1/901 2013/11/27
 36 40  0  0  0  0  0  0  0  0999 V2000
   11.6927  -24.1851   -4.1313 C   0  0  0  0  0  0
   11.6056  -23.9117   -2.6246 C   0  0  0  0  0  0
   12.1213  -25.6361   -4.4141 C   0  0  0  0  0  0
   11.0395  -26.5805   -4.0624 N   0  0  0  0  0  0
   11.5024  -27.9712   -4.2476 C   0  0  0  0  0  0
   10.6798  -28.9290   -3.4062 C   0  0  0  0  0  0
   10.2016  -30.1860   -3.8845 C   0  0  0  0  0  0
   10.4720  -30.6140   -5.3088 C   0  0  0  0  0  0
    9.4944  -31.0540   -3.0016 C   0  0  0  0  0  0
    9.0206  -32.3288   -3.4704 N   0  0  0  0  0  0
    7.8090  -32.7918   -3.3583 C   0  0  0  0  0  0
    6.8411  -32.0637   -2.6609 O   0  0  0  0  0  0
    7.4880  -34.1226   -3.9305 C   0  0  0  0  0  0
    6.1752  -34.6177   -3.9499 C   0  0  0  0  0  0
    5.9161  -35.8452   -4.4698 N   0  0  0  0  0  0
    6.9099  -36.6125   -4.9900 C   0  0  0  0  0  0
    6.6059  -37.9772   -5.5113 C   0  0  0  0  0  0
    8.1888  -36.1561   -4.9853 N   0  0  0  0  0  0
    8.4956  -34.9359   -4.4751 C   0  0  0  0  0  0
    9.2037  -30.6165   -1.6948 C   0  0  0  0  0  0
    9.6575  -29.4047   -1.3020 N   0  0  0  0  0  0
    9.5180  -28.7811   -0.1246 C   0  0  0  0  0  0
   10.1699  -27.5662   -0.2283 C   0  0  0  0  0  0
   10.7106  -27.4337   -1.4629 N   0  0  0  0  0  0
   10.3694  -28.5835   -2.0846 C   0  0  0  0  0  0
    9.8440  -26.3083   -4.8885 C   0  0  0  0  0  0
    9.3174  -24.9035   -4.5949 C   0  0  0  0  0  0
   10.3952  -23.9214   -4.7763 N   0  0  0  0  0  0
   10.2077  -22.7992   -5.6633 C   0  0  0  0  0  0
    9.4737  -22.9295   -6.6821 O   0  0  0  0  0  0
   10.8194  -21.4437   -5.3647 C   0  0  0  0  0  0
   12.3490  -21.5092   -5.3352 C   0  0  0  0  0  0
   12.8428  -20.9929   -6.6876 C   0  0  0  0  0  0
   11.6213  -20.5022   -7.4588 C   0  0  0  0  0  0
   10.4794  -20.4352   -6.4579 C   0  0  0  0  0  0
    5.8945  -32.3966   -2.5346 H   0  0  0  0  0  0
  1  2  1  0  0  0
  1  3  1  0  0  0
  3  4  1  0  0  0
  4  5  1  0  0  0
  5  6  1  0  0  0
  6  7  2  0  0  0
  7  8  1  0  0  0
  7  9  1  0  0  0
  9 10  1  0  0  0
 10 11  2  0  0  0
 11 12  1  0  0  0
 11 13  1  0  0  0
 13 14  2  0  0  0
 14 15  1  0  0  0
 15 16  2  0  0  0
 16 17  1  0  0  0
 16 18  1  0  0  0
 18 19  2  0  0  0
  9 20  2  0  0  0
 20 21  1  0  0  0
 21 22  1  0  0  0
 22 23  2  0  0  0
 23 24  1  0  0  0
 24 25  2  0  0  0
  4 26  1  0  0  0
 26 27  1  0  0  0
 27 28  1  0  0  0
 28 29  1  0  0  0
 29 30  2  0  0  0
 29 31  1  0  0  0
 31 32  1  0  0  0
 32 33  1  0  0  0
 33 34  1  0  0  0
 34 35  1  0  0  0
 28  1  1  0  0  0
 35 31  1  0  0  0
 25  6  1  0  0  0
 19 13  1  0  0  0
 25 21  1  0  0  0
 12 36  1  0  0  0
M  END
>  <CHROM.0>
-156.74419639,-45.27290401,5.96312801,66.59134649,-171.95700724

>  <CHROM.1>
157.29883464,136.98715186,-128.53801600,-178.70438933,-173.98972145,62.41951248
9.69335360,-28.35220578,-4.07963822,-0.65722940,1.19930648,2.15179883

>  <RI>
0

>  <Rbt.Current_Directory>
/extra/banzai2/j5wagner/CELPP/2016_10_17_rdock_implementation/normal_run/tutorialVideo/tutorial_rdock_implementation/full_week_run/4-docking/5m96/SMCSS_4wlb_docking

>  <Rbt.Executable>
rbdock ($Id: //depot/dev/client3/rdock/2013.1/src/exe/rbdock.cxx#4 $)

>  <Rbt.Library>
libRbt.so (2013.1, Build901 2013/11/27)

>  <Rbt.Parameter_File>
/home/j5wagner/env_00/source/rDock/rDock_2013.1_src//data/scripts/dock.prm

>  <Rbt.Receptor>
/extra/banzai2/j5wagner/CELPP/2016_10_17_rdock_implementation/normal_run/tutorialVideo/tutorial_rdock_implementation/full_week_run/4-docking/5m96/SMCSS_4wlb_tech_prep/rDockGridGenInput.prm

>  <SCORE>
-15.4207

>  <SCORE.INTER>
-10.806

>  <SCORE.INTER.CONST>
1

>  <SCORE.INTER.POLAR>
0

>  <SCORE.INTER.REPUL>
0

>  <SCORE.INTER.ROT>
5

>  <SCORE.INTER.VDW>
-21.206

>  <SCORE.INTER.norm>
-0.308744

>  <SCORE.INTRA>
0.363654

>  <SCORE.INTRA.DIHEDRAL>
-3.80748

>  <SCORE.INTRA.DIHEDRAL.0>
9.74364

>  <SCORE.INTRA.POLAR>
0

>  <SCORE.INTRA.POLAR.0>
0

>  <SCORE.INTRA.REPUL>
0.2328

>  <SCORE.INTRA.REPUL.0>
0.108387

>  <SCORE.INTRA.VDW>
1.10339

>  <SCORE.INTRA.VDW.0>
-2.87247

>  <SCORE.INTRA.norm>
0.0103901

>  <SCORE.RESTR>
0

>  <SCORE.RESTR.CAVITY>
0

>  <SCORE.RESTR.norm>
0

>  <SCORE.SYSTEM>
-4.97829

>  <SCORE.SYSTEM.CONST>
0

>  <SCORE.SYSTEM.DIHEDRAL>
2.13541

>  <SCORE.SYSTEM.POLAR>
-1.61684

>  <SCORE.SYSTEM.VDW>
-0.548721

>  <SCORE.SYSTEM.norm>
-0.142237

>  <SCORE.heavy>
35

>  <SCORE.norm>
-0.440591

$$$$

  rDOCK(R)          3D
libRbt.so/2013.1/901 2013/11/27
 36 40  0  0  0  0  0  0  0  0999 V2000
    9.2781  -31.4327   -3.8272 C   0  0  0  0  0  0
    9.9244  -30.7977   -5.0648 C   0  0  0  0  0  0
    9.0928  -30.4013   -2.6997 C   0  0  0  0  0  0
    8.0358  -29.4280   -3.0480 N   0  0  0  0  0  0
    7.9392  -28.3904   -2.0007 C   0  0  0  0  0  0
    9.2264  -27.5919   -1.9135 C   0  0  0  0  0  0
    9.6432  -26.6586   -2.9099 C   0  0  0  0  0  0
    8.8102  -26.4461   -4.1533 C   0  0  0  0  0  0
   10.8344  -25.9003   -2.7119 C   0  0  0  0  0  0
   11.2553  -24.9472   -3.7038 N   0  0  0  0  0  0
   12.1703  -24.0327   -3.5577 C   0  0  0  0  0  0
   12.7935  -23.8549   -2.3194 O   0  0  0  0  0  0
   12.4992  -23.1499   -4.7039 C   0  0  0  0  0  0
   13.6898  -22.4081   -4.7430 C   0  0  0  0  0  0
   13.9559  -21.5995   -5.8012 N   0  0  0  0  0  0
   13.0902  -21.4984   -6.8439 C   0  0  0  0  0  0
   13.3838  -20.5663   -7.9716 C   0  0  0  0  0  0
   11.9320  -22.2070   -6.8318 N   0  0  0  0  0  0
   11.6229  -23.0271   -5.7948 C   0  0  0  0  0  0
   11.6268  -26.1502   -1.5746 C   0  0  0  0  0  0
   11.1986  -27.0651   -0.6757 N   0  0  0  0  0  0
   11.7645  -27.4662    0.4703 C   0  0  0  0  0  0
   10.9284  -28.4171    1.0256 C   0  0  0  0  0  0
    9.8494  -28.6077    0.2297 N   0  0  0  0  0  0
   10.0600  -27.7593   -0.8002 C   0  0  0  0  0  0
    6.7439  -30.1261   -3.2193 C   0  0  0  0  0  0
    6.8362  -31.1135   -4.3826 C   0  0  0  0  0  0
    7.9733  -32.0207   -4.1746 N   0  0  0  0  0  0
    7.7705  -33.4489   -4.1945 C   0  0  0  0  0  0
    6.6717  -33.9252   -3.7952 O   0  0  0  0  0  0
    8.8238  -34.3901   -4.7473 C   0  0  0  0  0  0
    9.5692  -35.1224   -3.6279 C   0  0  0  0  0  0
    8.9492  -36.5163   -3.5181 C   0  0  0  0  0  0
    7.9365  -36.6524   -4.6511 C   0  0  0  0  0  0
    8.1884  -35.4880   -5.5950 C   0  0  0  0  0  0
   12.3587  -24.1238   -1.4467 H   0  0  0  0  0  0
  1  2  1  0  0  0
  1  3  1  0  0  0
  3  4  1  0  0  0
  4  5  1  0  0  0
  5  6  1  0  0  0
  6  7  2  0  0  0
  7  8  1  0  0  0
  7  9  1  0  0  0
  9 10  1  0  0  0
 10 11  2  0  0  0
 11 12  1  0  0  0
 11 13  1  0  0  0
 13 14  2  0  0  0
 14 15  1  0  0  0
 15 16  2  0  0  0
 16 17  1  0  0  0
 16 18  1  0  0  0
 18 19  2  0  0  0
  9 20  2  0  0  0
 20 21  1  0  0  0
 21 22  1  0  0  0
 22 23  2  0  0  0
 23 24  1  0  0  0
 24 25  2  0  0  0
  4 26  1  0  0  0
 26 27  1  0  0  0
 27 28  1  0  0  0
 28 29  1  0  0  0
 29 30  2  0  0  0
 29 31  1  0  0  0
 31 32  1  0  0  0
 32 33  1  0  0  0
 33 34  1  0  0  0
 34 35  1  0  0  0
 28  1  1  0  0  0
 35 31  1  0  0  0
 25  6  1  0  0  0
 19 13  1  0  0  0
 25 21  1  0  0  0
 12 36  1  0  0  0
M  END
>  <CHROM.0>
-155.78390374,60.10517172,8.67174835,-64.46032388,-172.95172418

>  <CHROM.1>
63.28053607,71.26447960,167.10375923,-24.51495545,-162.45452966,104.80803192
10.08822892,-28.30525214,-3.55821687,3.07746262,1.19554420,1.54973544

>  <RI>
0

>  <Rbt.Current_Directory>
/extra/banzai2/j5wagner/CELPP/2016_10_17_rdock_implementation/normal_run/tutorialVideo/tutorial_rdock_implementation/full_week_run/4-docking/5m96/SMCSS_4wlb_docking

>  <Rbt.Executable>
rbdock ($Id: //depot/dev/client3/rdock/2013.1/src/exe/rbdock.cxx#4 $)

>  <Rbt.Library>
libRbt.so (2013.1, Build901 2013/11/27)

>  <Rbt.Parameter_File>
/home/j5wagner/env_00/source/rDock/rDock_2013.1_src//data/scripts/dock.prm

>  <Rbt.Receptor>
/extra/banzai2/j5wagner/CELPP/2016_10_17_rdock_implementation/normal_run/tutorialVideo/tutorial_rdock_implementation/full_week_run/4-docking/5m96/SMCSS_4wlb_tech_prep/rDockGridGenInput.prm

>  <SCORE>
-15.2344

>  <SCORE.INTER>
-9.21925

>  <SCORE.INTER.CONST>
1

>  <SCORE.INTER.POLAR>
0

>  <SCORE.INTER.REPUL>
0

>  <SCORE.INTER.ROT>
5

>  <SCORE.INTER.VDW>
-19.6192

>  <SCORE.INTER.norm>
-0.263407

>  <SCORE.INTRA>
3.31488

>  <SCORE.INTRA.DIHEDRAL>
0.27127

>  <SCORE.INTRA.DIHEDRAL.0>
9.74364

>  <SCORE.INTRA.POLAR>
0

>  <SCORE.INTRA.POLAR.0>
0

>  <SCORE.INTRA.REPUL>
-0.108387

>  <SCORE.INTRA.REPUL.0>
0.108387

>  <SCORE.INTRA.VDW>
3.72118

>  <SCORE.INTRA.VDW.0>
-2.87247

>  <SCORE.INTRA.norm>
0.0947107

>  <SCORE.RESTR>
0.0153663

>  <SCORE.RESTR.CAVITY>
0.0153663

>  <SCORE.RESTR.norm>
0.000439036

>  <SCORE.SYSTEM>
-9.34542

>  <SCORE.SYSTEM.CONST>
0

>  <SCORE.SYSTEM.DIHEDRAL>
1.09789

>  <SCORE.SYSTEM.POLAR>
-2.64876

>  <SCORE.SYSTEM.VDW>
-0.88859

>  <SCORE.SYSTEM.norm>
-0.267012

>  <SCORE.heavy>
35

>  <SCORE.norm>
-0.435269

$$$$

  rDOCK(R)          3D
libRbt.so/2013.1/901 2013/11/27
 36 40  0  0  0  0  0  0  0  0999 V2000
    8.6972  -32.9795   -4.4612 C   0  0  0  0  0  0
    8.6529  -32.8135   -5.9854 C   0  0  0  0  0  0
    8.5095  -31.6304   -3.7445 C   0  0  0  0  0  0
    7.1199  -31.1474   -3.8915 N   0  0  0  0  0  0
    6.9831  -29.8082   -3.2826 C   0  0  0  0  0  0
    7.8541  -29.6876   -2.0460 C   0  0  0  0  0  0
    9.0861  -28.9671   -2.0178 C   0  0  0  0  0  0
    9.6110  -28.3026   -3.2699 C   0  0  0  0  0  0
    9.8054  -28.8476   -0.7925 C   0  0  0  0  0  0
   11.0409  -28.1118   -0.7508 N   0  0  0  0  0  0
   11.2105  -26.8665   -1.0901 C   0  0  0  0  0  0
   10.1475  -26.1337   -1.6252 O   0  0  0  0  0  0
   12.5563  -26.2571   -0.9534 C   0  0  0  0  0  0
   13.6142  -26.9411   -0.3352 C   0  0  0  0  0  0
   14.8313  -26.3507   -0.2149 N   0  0  0  0  0  0
   15.0565  -25.0997   -0.6958 C   0  0  0  0  0  0
   16.3891  -24.4552   -0.5081 C   0  0  0  0  0  0
   14.0503  -24.4168   -1.3001 N   0  0  0  0  0  0
   12.8168  -24.9661   -1.4420 C   0  0  0  0  0  0
    9.3305  -29.5186    0.3512 C   0  0  0  0  0  0
    8.1717  -30.2098    0.2617 N   0  0  0  0  0  0
    7.5224  -30.9134    1.1987 C   0  0  0  0  0  0
    6.3826  -31.4247    0.6060 C   0  0  0  0  0  0
    6.3234  -31.0428   -0.6920 N   0  0  0  0  0  0
    7.4409  -30.3019   -0.8569 C   0  0  0  0  0  0
    6.1837  -32.1076   -3.2694 C   0  0  0  0  0  0
    6.2627  -33.4531   -3.9905 C   0  0  0  0  0  0
    7.6554  -33.9210   -4.0173 N   0  0  0  0  0  0
    7.9880  -35.2277   -3.5045 C   0  0  0  0  0  0
    7.3177  -35.7083   -2.5487 O   0  0  0  0  0  0
    9.0841  -36.0683   -4.1312 C   0  0  0  0  0  0
    9.6675  -37.0709   -3.1316 C   0  0  0  0  0  0
    9.0114  -38.4217   -3.4218 C   0  0  0  0  0  0
    8.1476  -38.2478   -4.6672 C   0  0  0  0  0  0
    8.5395  -36.9129   -5.2793 C   0  0  0  0  0  0
   10.1785  -25.1287   -1.7344 H   0  0  0  0  0  0
  1  2  1  0  0  0
  1  3  1  0  0  0
  3  4  1  0  0  0
  4  5  1  0  0  0
  5  6  1  0  0  0
  6  7  2  0  0  0
  7  8  1  0  0  0
  7  9  1  0  0  0
  9 10  1  0  0  0
 10 11  2  0  0  0
 11 12  1  0  0  0
 11 13  1  0  0  0
 13 14  2  0  0  0
 14 15  1  0  0  0
 15 16  2  0  0  0
 16 17  1  0  0  0
 16 18  1  0  0  0
 18 19  2  0  0  0
  9 20  2  0  0  0
 20 21  1  0  0  0
 21 22  1  0  0  0
 22 23  2  0  0  0
 23 24  1  0  0  0
 24 25  2  0  0  0
  4 26  1  0  0  0
 26 27  1  0  0  0
 27 28  1  0  0  0
 28 29  1  0  0  0
 29 30  2  0  0  0
 29 31  1  0  0  0
 31 32  1  0  0  0
 32 33  1  0  0  0
 33 34  1  0  0  0
 34 35  1  0  0  0
 28  1  1  0  0  0
 35 31  1  0  0  0
 25  6  1  0  0  0
 19 13  1  0  0  0
 25 21  1  0  0  0
 12 36  1  0  0  0
M  END
>  <CHROM.0>
-154.78464944,59.45578545,1.98403357,-65.37409756,-179.01579657

>  <CHROM.1>
-35.41135740,104.09862761,57.37364578,167.82995322,-6.98494974,155.33480056
9.50137301,-30.73689924,-2.19988255,-2.06388832,0.21834711,0.41547093

>  <RI>
0

>  <Rbt.Current_Directory>
/extra/banzai2/j5wagner/CELPP/2016_10_17_rdock_implementation/normal_run/tutorialVideo/tutorial_rdock_implementation/full_week_run/4-docking/5m96/SMCSS_4wlb_docking

>  <Rbt.Executable>
rbdock ($Id: //depot/dev/client3/rdock/2013.1/src/exe/rbdock.cxx#4 $)

>  <Rbt.Library>
libRbt.so (2013.1, Build901 2013/11/27)

>  <Rbt.Parameter_File>
/home/j5wagner/env_00/source/rDock/rDock_2013.1_src//data/scripts/dock.prm

>  <Rbt.Receptor>
/extra/banzai2/j5wagner/CELPP/2016_10_17_rdock_implementation/normal_run/tutorialVideo/tutorial_rdock_implementation/full_week_run/4-docking/5m96/SMCSS_4wlb_tech_prep/rDockGridGenInput.prm

>  <SCORE>
-13.9922

>  <SCORE.INTER>
-8.26489

>  <SCORE.INTER.CONST>
1

>  <SCORE.INTER.POLAR>
0

>  <SCORE.INTER.REPUL>
0

>  <SCORE.INTER.ROT>
5

>  <SCORE.INTER.VDW>
-18.6649

>  <SCORE.INTER.norm>
-0.23614

>  <SCORE.INTRA>
3.65861

>  <SCORE.INTRA.DIHEDRAL>
-0.320853

>  <SCORE.INTRA.DIHEDRAL.0>
9.74364

>  <SCORE.INTRA.POLAR>
0

>  <SCORE.INTRA.POLAR.0>
0

>  <SCORE.INTRA.REPUL>
-0.108387

>  <SCORE.INTRA.REPUL.0>
0.108387

>  <SCORE.INTRA.VDW>
4.36097

>  <SCORE.INTRA.VDW.0>
-2.87247

>  <SCORE.INTRA.norm>
0.104532

>  <SCORE.RESTR>
0

>  <SCORE.RESTR.CAVITY>
0

>  <SCORE.RESTR.norm>
0

>  <SCORE.SYSTEM>
-9.38588

>  <SCORE.SYSTEM.CONST>
0

>  <SCORE.SYSTEM.DIHEDRAL>
1.03803

>  <SCORE.SYSTEM.POLAR>
-2.66389

>  <SCORE.SYSTEM.VDW>
-0.847663

>  <SCORE.SYSTEM.norm>
-0.268168

>  <SCORE.heavy>
35

>  <SCORE.norm>
-0.399776

$$$$

  rDOCK(R)          3D
libRbt.so/2013.1/901 2013/11/27
 36 40  0  0  0  0  0  0  0  0999 V2000
    8.8896  -27.1618   -2.6067 C   0  0  0  0  0  0
    8.9894  -27.8013   -3.9972 C   0  0  0  0  0  0
    7.8415  -27.8763   -1.7348 C   0  0  0  0  0  0
    8.3131  -29.2223   -1.3451 N   0  0  0  0  0  0
    7.2568  -29.9297   -0.5925 C   0  0  0  0  0  0
    7.1269  -31.3650   -1.0671 C   0  0  0  0  0  0
    7.2648  -31.7586   -2.4322 C   0  0  0  0  0  0
    7.5181  -30.7229   -3.5037 C   0  0  0  0  0  0
    7.1961  -33.1401   -2.7784 C   0  0  0  0  0  0
    7.3478  -33.5479   -4.1496 N   0  0  0  0  0  0
    6.7463  -34.5459   -4.7301 C   0  0  0  0  0  0
    5.9146  -35.3908   -3.9900 O   0  0  0  0  0  0
    7.0002  -34.8048   -6.1689 C   0  0  0  0  0  0
    8.2066  -34.4327   -6.7815 C   0  0  0  0  0  0
    8.4033  -34.6728   -8.1036 N   0  0  0  0  0  0
    7.4512  -35.2841   -8.8565 C   0  0  0  0  0  0
    7.6731  -35.4928  -10.3173 C   0  0  0  0  0  0
    6.2756  -35.6560   -8.2877 N   0  0  0  0  0  0
    6.0339  -35.4354   -6.9700 C   0  0  0  0  0  0
    6.9051  -34.0859   -1.7762 C   0  0  0  0  0  0
    6.7568  -33.6550   -0.5030 N   0  0  0  0  0  0
    6.4883  -34.3524    0.6088 C   0  0  0  0  0  0
    6.4434  -33.4489    1.6544 C   0  0  0  0  0  0
    6.6812  -32.1968    1.1963 N   0  0  0  0  0  0
    6.8659  -32.3733   -0.1302 C   0  0  0  0  0  0
    9.5487  -29.1106   -0.5411 C   0  0  0  0  0  0
   10.6597  -28.4784   -1.3794 C   0  0  0  0  0  0
   10.1976  -27.1971   -1.9308 N   0  0  0  0  0  0
   10.9606  -25.9947   -1.7003 C   0  0  0  0  0  0
   11.6136  -25.8703   -0.6270 O   0  0  0  0  0  0
   11.0508  -24.9017   -2.7481 C   0  0  0  0  0  0
   12.3033  -24.0412   -2.5594 C   0  0  0  0  0  0
   13.3428  -24.5421   -3.5633 C   0  0  0  0  0  0
   12.6647  -25.6006   -4.4278 C   0  0  0  0  0  0
   11.1744  -25.4931   -4.1491 C   0  0  0  0  0  0
    5.4819  -36.2143   -4.3869 H   0  0  0  0  0  0
  1  2  1  0  0  0
  1  3  1  0  0  0
  3  4  1  0  0  0
  4  5  1  0  0  0
  5  6  1  0  0  0
  6  7  2  0  0  0
  7  8  1  0  0  0
  7  9  1  0  0  0
  9 10  1  0  0  0
 10 11  2  0  0  0
 11 12  1  0  0  0
 11 13  1  0  0  0
 13 14  2  0  0  0
 14 15  1  0  0  0
 15 16  2  0  0  0
 16 17  1  0  0  0
 16 18  1  0  0  0
 18 19  2  0  0  0
  9 20  2  0  0  0
 20 21  1  0  0  0
 21 22  1  0  0  0
 22 23  2  0  0  0
 23 24  1  0  0  0
 24 25  2  0  0  0
  4 26  1  0  0  0
 26 27  1  0  0  0
 27 28  1  0  0  0
 28 29  1  0  0  0
 29 30  2  0  0  0
 29 31  1  0  0  0
 31 32  1  0  0  0
 32 33  1  0  0  0
 33 34  1  0  0  0
 34 35  1  0  0  0
 28  1  1  0  0  0
 35 31  1  0  0  0
 25  6  1  0  0  0
 19 13  1  0  0  0
 25 21  1  0  0  0
 12 36  1  0  0  0
M  END
>  <CHROM.0>
-157.81498443,60.18789591,-178.84302343,63.73579997,-175.93088561

>  <CHROM.1>
135.81972609,-37.33189790,-145.77665173,-175.52302469,27.26231498,-156.70824179
8.46555004,-30.78779310,-3.18110929,-0.69211228,-1.01925050,-1.97323176

>  <RI>
0

>  <Rbt.Current_Directory>
/extra/banzai2/j5wagner/CELPP/2016_10_17_rdock_implementation/normal_run/tutorialVideo/tutorial_rdock_implementation/full_week_run/4-docking/5m96/SMCSS_4wlb_docking

>  <Rbt.Executable>
rbdock ($Id: //depot/dev/client3/rdock/2013.1/src/exe/rbdock.cxx#4 $)

>  <Rbt.Library>
libRbt.so (2013.1, Build901 2013/11/27)

>  <Rbt.Parameter_File>
/home/j5wagner/env_00/source/rDock/rDock_2013.1_src//data/scripts/dock.prm

>  <Rbt.Receptor>
/extra/banzai2/j5wagner/CELPP/2016_10_17_rdock_implementation/normal_run/tutorialVideo/tutorial_rdock_implementation/full_week_run/4-docking/5m96/SMCSS_4wlb_tech_prep/rDockGridGenInput.prm

>  <SCORE>
-13.4628

>  <SCORE.INTER>
-6.61077

>  <SCORE.INTER.CONST>
1

>  <SCORE.INTER.POLAR>
0

>  <SCORE.INTER.REPUL>
0

>  <SCORE.INTER.ROT>
5

>  <SCORE.INTER.VDW>
-17.0108

>  <SCORE.INTER.norm>
-0.188879

>  <SCORE.INTRA>
2.33054

>  <SCORE.INTRA.DIHEDRAL>
-0.838016

>  <SCORE.INTRA.DIHEDRAL.0>
9.74364

>  <SCORE.INTRA.POLAR>
0

>  <SCORE.INTRA.POLAR.0>
0

>  <SCORE.INTRA.REPUL>
-0.108387

>  <SCORE.INTRA.REPUL.0>
0.108387

>  <SCORE.INTRA.VDW>
3.29149

>  <SCORE.INTRA.VDW.0>
-2.87247

>  <SCORE.INTRA.norm>
0.066587

>  <SCORE.RESTR>
0

>  <SCORE.RESTR.CAVITY>
0

>  <SCORE.RESTR.norm>
0

>  <SCORE.SYSTEM>
-9.1826

>  <SCORE.SYSTEM.CONST>
0

>  <SCORE.SYSTEM.DIHEDRAL>
0.798286

>  <SCORE.SYSTEM.POLAR>
-2.63089

>  <SCORE.SYSTEM.VDW>
-0.636705

>  <SCORE.SYSTEM.norm>
-0.26236

>  <SCORE.heavy>
35

>  <SCORE.norm>
-0.384652

$$$$

  rDOCK(R)          3D
libRbt.so/2013.1/901 2013/11/27
 36 40  0  0  0  0  0  0  0  0999 V2000
   14.4408  -26.1615   -1.5799 C   0  0  0  0  0  0
   14.2916  -27.3588   -2.5269 C   0  0  0  0  0  0
   13.5729  -24.9747   -2.0353 C   0  0  0  0  0  0
   12.1379  -25.2648   -1.8289 N   0  0  0  0  0  0
   11.3168  -24.1576   -2.3605 C   0  0  0  0  0  0
   10.3321  -24.6669   -3.3965 C   0  0  0  0  0  0
    9.8487  -26.0095   -3.4304 C   0  0  0  0  0  0
   10.3418  -27.0243   -2.4244 C   0  0  0  0  0  0
    8.8708  -26.3829   -4.3985 C   0  0  0  0  0  0
    8.3671  -27.7300   -4.4318 N   0  0  0  0  0  0
    9.0728  -28.8159   -4.5648 C   0  0  0  0  0  0
   10.4523  -28.7352   -4.7742 O   0  0  0  0  0  0
    8.3859  -30.1309   -4.5472 C   0  0  0  0  0  0
    7.0691  -30.2667   -4.0818 C   0  0  0  0  0  0
    6.4726  -31.4867   -4.0673 N   0  0  0  0  0  0
    7.1252  -32.5937   -4.5097 C   0  0  0  0  0  0
    6.4643  -33.9297   -4.4382 C   0  0  0  0  0  0
    8.3995  -32.4894   -4.9670 N   0  0  0  0  0  0
    9.0366  -31.2909   -4.9991 C   0  0  0  0  0  0
    8.4632  -25.4401   -5.3623 C   0  0  0  0  0  0
    8.9738  -24.1895   -5.3008 N   0  0  0  0  0  0
    8.7388  -23.1314   -6.0880 C   0  0  0  0  0  0
    9.5027  -22.0860   -5.6028 C   0  0  0  0  0  0
   10.2096  -22.4911   -4.5210 N   0  0  0  0  0  0
    9.8540  -23.7862   -4.3753 C   0  0  0  0  0  0
   11.8682  -25.4780   -0.3910 C   0  0  0  0  0  0
   12.6422  -26.6980    0.1083 C   0  0  0  0  0  0
   14.0691  -26.5439   -0.2072 N   0  0  0  0  0  0
   15.0555  -26.6490    0.8403 C   0  0  0  0  0  0
   14.7597  -26.2792    2.0106 O   0  0  0  0  0  0
   16.4213  -27.2563    0.5829 C   0  0  0  0  0  0
   16.4720  -27.9800   -0.7657 C   0  0  0  0  0  0
   17.1461  -27.0291   -1.7560 C   0  0  0  0  0  0
   17.6091  -25.8076   -0.9679 C   0  0  0  0  0  0
   17.4960  -26.1763    0.5023 C   0  0  0  0  0  0
   11.0289  -29.5516   -4.9288 H   0  0  0  0  0  0
  1  2  1  0  0  0
  1  3  1  0  0  0
  3  4  1  0  0  0
  4  5  1  0  0  0
  5  6  1  0  0  0
  6  7  2  0  0  0
  7  8  1  0  0  0
  7  9  1  0  0  0
  9 10  1  0  0  0
 10 11  2  0  0  0
 11 12  1  0  0  0
 11 13  1  0  0  0
 13 14  2  0  0  0
 14 15  1  0  0  0
 15 16  2  0  0  0
 16 17  1  0  0  0
 16 18  1  0  0  0
 18 19  2  0  0  0
  9 20  2  0  0  0
 20 21  1  0  0  0
 21 22  1  0  0  0
 22 23  2  0  0  0
 23 24  1  0  0  0
 24 25  2  0  0  0
  4 26  1  0  0  0
 26 27  1  0  0  0
 27 28  1  0  0  0
 28 29  1  0  0  0
 29 30  2  0  0  0
 29 31  1  0  0  0
 31 32  1  0  0  0
 32 33  1  0  0  0
 33 34  1  0  0  0
 34 35  1  0  0  0
 28  1  1  0  0  0
 35 31  1  0  0  0
 25  6  1  0  0  0
 19 13  1  0  0  0
 25 21  1  0  0  0
 12 36  1  0  0  0
M  END
>  <CHROM.0>
-159.16538616,62.00085536,6.31546144,-177.16574306,178.72627921

>  <CHROM.1>
123.03967892,25.48410024,-56.78578360,-176.83824392,-15.36614923,-12.40931817
11.36002802,-27.06333346,-2.83162450,-0.31450070,0.56915808,2.97850806

>  <RI>
0

>  <Rbt.Current_Directory>
/extra/banzai2/j5wagner/CELPP/2016_10_17_rdock_implementation/normal_run/tutorialVideo/tutorial_rdock_implementation/full_week_run/4-docking/5m96/SMCSS_4wlb_docking

>  <Rbt.Executable>
rbdock ($Id: //depot/dev/client3/rdock/2013.1/src/exe/rbdock.cxx#4 $)

>  <Rbt.Library>
libRbt.so (2013.1, Build901 2013/11/27)

>  <Rbt.Parameter_File>
/home/j5wagner/env_00/source/rDock/rDock_2013.1_src//data/scripts/dock.prm

>  <Rbt.Receptor>
/extra/banzai2/j5wagner/CELPP/2016_10_17_rdock_implementation/normal_run/tutorialVideo/tutorial_rdock_implementation/full_week_run/4-docking/5m96/SMCSS_4wlb_tech_prep/rDockGridGenInput.prm

>  <SCORE>
-13.1964

>  <SCORE.INTER>
-17.2149

>  <SCORE.INTER.CONST>
1

>  <SCORE.INTER.POLAR>
0

>  <SCORE.INTER.REPUL>
0

>  <SCORE.INTER.ROT>
5

>  <SCORE.INTER.VDW>
-27.6149

>  <SCORE.INTER.norm>
-0.491856

>  <SCORE.INTRA>
13.3146

>  <SCORE.INTRA.DIHEDRAL>
2.12018

>  <SCORE.INTRA.DIHEDRAL.0>
9.74364

>  <SCORE.INTRA.POLAR>
0

>  <SCORE.INTRA.POLAR.0>
0

>  <SCORE.INTRA.REPUL>
-0.108387

>  <SCORE.INTRA.REPUL.0>
0.108387

>  <SCORE.INTRA.VDW>
12.7965

>  <SCORE.INTRA.VDW.0>
-2.87247

>  <SCORE.INTRA.norm>
0.380418

>  <SCORE.RESTR>
0

>  <SCORE.RESTR.CAVITY>
0

>  <SCORE.RESTR.norm>
0

>  <SCORE.SYSTEM>
-9.29605

>  <SCORE.SYSTEM.CONST>
0

>  <SCORE.SYSTEM.DIHEDRAL>
0.736419

>  <SCORE.SYSTEM.POLAR>
-2.5999

>  <SCORE.SYSTEM.VDW>
-0.824611

>  <SCORE.SYSTEM.norm>
-0.265602

>  <SCORE.heavy>
35

>  <SCORE.norm>
-0.37704

$$$$

  rDOCK(R)          3D
libRbt.so/2013.1/901 2013/11/27
 36 40  0  0  0  0  0  0  0  0999 V2000
    8.6617  -31.6419   -5.3493 C   0  0  0  0  0  0
    7.4515  -30.7852   -4.9565 C   0  0  0  0  0  0
    9.9512  -30.8028   -5.3964 C   0  0  0  0  0  0
   10.3701  -30.4084   -4.0344 N   0  0  0  0  0  0
   11.5514  -29.5240   -4.1052 C   0  0  0  0  0  0
   11.2958  -28.2240   -3.3656 C   0  0  0  0  0  0
   11.6166  -26.9390   -3.8977 C   0  0  0  0  0  0
   12.2804  -26.8166   -5.2503 C   0  0  0  0  0  0
   11.2773  -25.7659   -3.1617 C   0  0  0  0  0  0
   11.5839  -24.4659   -3.6959 N   0  0  0  0  0  0
   10.8053  -23.7318   -4.4374 C   0  0  0  0  0  0
    9.5654  -24.2235   -4.8547 O   0  0  0  0  0  0
   11.2758  -22.3950   -4.8769 C   0  0  0  0  0  0
   12.6067  -21.9880   -4.6973 C   0  0  0  0  0  0
   13.0031  -20.7530   -5.0997 N   0  0  0  0  0  0
   12.1325  -19.8932   -5.6913 C   0  0  0  0  0  0
   12.5816  -18.5244   -6.0805 C   0  0  0  0  0  0
   10.8395  -20.2631   -5.8787 N   0  0  0  0  0  0
   10.3976  -21.4871   -5.4915 C   0  0  0  0  0  0
   10.7093  -25.8995   -1.8797 C   0  0  0  0  0  0
   10.4513  -27.1419   -1.4124 N   0  0  0  0  0  0
    9.9158  -27.5208   -0.2444 C   0  0  0  0  0  0
    9.8580  -28.9023   -0.2528 C   0  0  0  0  0  0
   10.3554  -29.3803   -1.4182 N   0  0  0  0  0  0
   10.7072  -28.2654   -2.0951 C   0  0  0  0  0  0
   10.6606  -31.6126   -3.2275 C   0  0  0  0  0  0
    9.3938  -32.4543   -3.0740 C   0  0  0  0  0  0
    8.8332  -32.7537   -4.3990 N   0  0  0  0  0  0
    8.5782  -34.1207   -4.7828 C   0  0  0  0  0  0
    9.3186  -35.0396   -4.3341 O   0  0  0  0  0  0
    7.3983  -34.4888   -5.6620 C   0  0  0  0  0  0
    7.7607  -35.5927   -6.6595 C   0  0  0  0  0  0
    7.2324  -36.9063   -6.0809 C   0  0  0  0  0  0
    6.4487  -36.5625   -4.8179 C   0  0  0  0  0  0
    6.2506  -35.0556   -4.8317 C   0  0  0  0  0  0
    9.2275  -25.1409   -4.5956 H   0  0  0  0  0  0
  1  2  1  0  0  0
  1  3  1  0  0  0
  3  4  1  0  0  0
  4  5  1  0  0  0
  5  6  1  0  0  0
  6  7  2  0  0  0
  7  8  1  0  0  0
  7  9  1  0  0  0
  9 10  1  0  0  0
 10 11  2  0  0  0
 11 12  1  0  0  0
 11 13  1  0  0  0
 13 14  2  0  0  0
 14 15  1  0  0  0
 15 16  2  0  0  0
 16 17  1  0  0  0
 16 18  1  0  0  0
 18 19  2  0  0  0
  9 20  2  0  0  0
 20 21  1  0  0  0
 21 22  1  0  0  0
 22 23  2  0  0  0
 23 24  1  0  0  0
 24 25  2  0  0  0
  4 26  1  0  0  0
 26 27  1  0  0  0
 27 28  1  0  0  0
 28 29  1  0  0  0
 29 30  2  0  0  0
 29 31  1  0  0  0
 31 32  1  0  0  0
 32 33  1  0  0  0
 33 34  1  0  0  0
 34 35  1  0  0  0
 28  1  1  0  0  0
 35 31  1  0  0  0
 25  6  1  0  0  0
 19 13  1  0  0  0
 25 21  1  0  0  0
 12 36  1  0  0  0
M  END
>  <CHROM.0>
6.78146795,-178.82213494,-174.12595634,64.09216014,-177.44951021

>  <CHROM.1>
125.36376007,-133.90429911,91.21818321,0.69763257,10.27057157,141.69836715
10.05878296,-28.36669239,-4.18543696,2.43287964,1.19788303,2.31578240

>  <RI>
0

>  <Rbt.Current_Directory>
/extra/banzai2/j5wagner/CELPP/2016_10_17_rdock_implementation/normal_run/tutorialVideo/tutorial_rdock_implementation/full_week_run/4-docking/5m96/SMCSS_4wlb_docking

>  <Rbt.Executable>
rbdock ($Id: //depot/dev/client3/rdock/2013.1/src/exe/rbdock.cxx#4 $)

>  <Rbt.Library>
libRbt.so (2013.1, Build901 2013/11/27)

>  <Rbt.Parameter_File>
/home/j5wagner/env_00/source/rDock/rDock_2013.1_src//data/scripts/dock.prm

>  <Rbt.Receptor>
/extra/banzai2/j5wagner/CELPP/2016_10_17_rdock_implementation/normal_run/tutorialVideo/tutorial_rdock_implementation/full_week_run/4-docking/5m96/SMCSS_4wlb_tech_prep/rDockGridGenInput.prm

>  <SCORE>
-11.1214

>  <SCORE.INTER>
-12.5495

>  <SCORE.INTER.CONST>
1

>  <SCORE.INTER.POLAR>
0

>  <SCORE.INTER.REPUL>
0

>  <SCORE.INTER.ROT>
5

>  <SCORE.INTER.VDW>
-22.9495

>  <SCORE.INTER.norm>
-0.358556

>  <SCORE.INTRA>
1.14057

>  <SCORE.INTRA.DIHEDRAL>
3.37011

>  <SCORE.INTRA.DIHEDRAL.0>
9.74364

>  <SCORE.INTRA.POLAR>
0

>  <SCORE.INTRA.POLAR.0>
0

>  <SCORE.INTRA.REPUL>
-0.0453063

>  <SCORE.INTRA.REPUL.0>
0.108387

>  <SCORE.INTRA.VDW>
-0.31795

>  <SCORE.INTRA.VDW.0>
-2.87247

>  <SCORE.INTRA.norm>
0.0325878

>  <SCORE.RESTR>
0.677633

>  <SCORE.RESTR.CAVITY>
0.677633

>  <SCORE.RESTR.norm>
0.0193609

>  <SCORE.SYSTEM>
-0.390114

>  <SCORE.SYSTEM.CONST>
0

>  <SCORE.SYSTEM.DIHEDRAL>
0.225974

>  <SCORE.SYSTEM.POLAR>
-0.859767

>  <SCORE.SYSTEM.VDW>
2.42011

>  <SCORE.SYSTEM.norm>
-0.0111461

>  <SCORE.heavy>
35

>  <SCORE.norm>
-0.317754

$$$$
