
  rDOCK(R)          3D
libRbt.so/2013.1/901 2013/11/27
 28 30  0  0  0  0  0  0  0  0999 V2000
   39.1190   15.2047   84.7884 C   0  0  0  0  0  0
   40.0016   14.2067   84.1479 C   0  0  0  0  0  0
   39.6323   13.0016   84.1494 O   0  0  0  0  0  0
   41.3011   14.5570   83.5247 C   0  0  0  0  0  0
   41.7956   13.7942   82.4601 C   0  0  0  0  0  0
   43.0456   14.0766   81.8625 C   0  0  0  0  0  0
   43.7739   15.2205   82.3091 C   0  0  0  0  0  0
   43.2872   15.9355   83.4251 C   0  0  0  0  0  0
   42.0745   15.6076   84.0232 C   0  0  0  0  0  0
   45.1062   15.6492   81.6756 C   0  0  0  0  0  0
   45.1190   17.1747   81.4055 C   0  0  0  0  0  0
   46.2587   15.3092   82.6481 C   0  0  0  0  0  0
   45.3382   14.9510   80.3127 C   0  0  0  0  0  0
   45.0194   13.4620   80.3659 C   0  0  0  0  0  0
   43.5318   13.1918   80.7037 C   0  0  0  0  0  0
   43.4227   11.6916   81.0752 C   0  0  0  0  0  0
   42.6504   13.4597   79.4622 C   0  0  0  0  0  0
   38.0545   14.8620   85.5292 C   0  0  0  0  0  0
   37.1548   15.8410   86.1876 C   0  0  0  0  0  0
   37.3097   17.2331   86.0436 C   0  0  0  0  0  0
   36.4401   18.1154   86.6922 C   0  0  0  0  0  0
   35.3988   17.6285   87.5010 C   0  0  0  0  0  0
   34.4710   18.5525   88.1980 C   0  0  0  0  0  0
   33.5320   18.0860   88.8966 O   0  0  0  0  0  0
   34.5955   19.9374   88.0920 O   0  0  0  0  0  0
   35.2630   16.2398   87.6659 C   0  0  0  0  0  0
   36.1318   15.3580   87.0177 C   0  0  0  0  0  0
   35.3392   20.3797   87.5678 H   0  0  0  0  0  0
  1  2  1  0  0  0
  2  3  2  0  0  0
  2  4  1  0  0  0
  4  5  2  0  0  0
  5  6  1  0  0  0
  6  7  2  0  0  0
  7  8  1  0  0  0
  8  9  2  0  0  0
  7 10  1  0  0  0
 10 11  1  0  0  0
 10 12  1  0  0  0
 10 13  1  0  0  0
 13 14  1  0  0  0
 14 15  1  0  0  0
 15 16  1  0  0  0
 15 17  1  0  0  0
  1 18  2  0  0  0
 18 19  1  0  0  0
 19 20  2  0  0  0
 20 21  1  0  0  0
 21 22  2  0  0  0
 22 23  1  0  0  0
 23 24  2  0  0  0
 23 25  1  0  0  0
 22 26  1  0  0  0
 26 27  2  0  0  0
  9  4  1  0  0  0
 27 19  1  0  0  0
 15  6  1  0  0  0
 25 28  1  0  0  0
M  END
>  <CHROM.0>
-29.65559461,-56.29657337,71.42523666,63.45101278,-176.09693275,-68.15175877
-52.74516801,67.10649375,65.11856261,62.81222846,179.17027489,64.98423586
64.18597163

>  <CHROM.1>
9.87956794,-151.10920401,2.77152438,178.70642389,-2.36922172,40.31880548
15.51542550,84.07864653,2.65661667,0.48029590,0.37093554

>  <RI>
3.63097e+07

>  <Rbt.Current_Directory>
/extra/banzai2/j5wagner/CELPP/2016_10_17_rdock_implementation/normal_run/tutorialVideo/tutorial_rdock_implementation/full_week_run/4-docking/1fcz/hiResHolo_1fcy_docking

>  <Rbt.Executable>
rbdock ($Id: //depot/dev/client3/rdock/2013.1/src/exe/rbdock.cxx#4 $)

>  <Rbt.Library>
libRbt.so (2013.1, Build901 2013/11/27)

>  <Rbt.Parameter_File>
/home/j5wagner/env_00/source/rDock/rDock_2013.1_src//data/scripts/dock.prm

>  <Rbt.Receptor>
/extra/banzai2/j5wagner/CELPP/2016_10_17_rdock_implementation/normal_run/tutorialVideo/tutorial_rdock_implementation/full_week_run/4-docking/1fcz/hiResHolo_1fcy_tech_prep/rDockGridGenInput.prm

>  <SCORE>
-63.2533

>  <SCORE.INTER>
-30.6378

>  <SCORE.INTER.CONST>
1

>  <SCORE.INTER.POLAR>
-2.49657

>  <SCORE.INTER.REPUL>
0

>  <SCORE.INTER.ROT>
4

>  <SCORE.INTER.VDW>
-31.5495

>  <SCORE.INTER.norm>
-1.13473

>  <SCORE.INTRA>
-2.86189

>  <SCORE.INTRA.DIHEDRAL>
-6.97055

>  <SCORE.INTRA.DIHEDRAL.0>
10.7811

>  <SCORE.INTRA.POLAR>
0

>  <SCORE.INTRA.POLAR.0>
0

>  <SCORE.INTRA.REPUL>
0

>  <SCORE.INTRA.REPUL.0>
0

>  <SCORE.INTRA.VDW>
0.623391

>  <SCORE.INTRA.VDW.0>
-0.812999

>  <SCORE.INTRA.norm>
-0.105996

>  <SCORE.RESTR>
0

>  <SCORE.RESTR.CAVITY>
0

>  <SCORE.RESTR.norm>
0

>  <SCORE.SYSTEM>
-29.7536

>  <SCORE.SYSTEM.CONST>
0

>  <SCORE.SYSTEM.DIHEDRAL>
3.60204

>  <SCORE.SYSTEM.POLAR>
-8.28639

>  <SCORE.SYSTEM.VDW>
-3.38091

>  <SCORE.SYSTEM.norm>
-1.10199

>  <SCORE.heavy>
27

>  <SCORE.norm>
-2.34271

$$$$

  rDOCK(R)          3D
libRbt.so/2013.1/901 2013/11/27
 28 30  0  0  0  0  0  0  0  0999 V2000
   38.4012   14.1421   85.3463 C   0  0  0  0  0  0
   39.4042   13.3318   84.6233 C   0  0  0  0  0  0
   39.2556   12.0802   84.6087 O   0  0  0  0  0  0
   40.5782   13.9219   83.9354 C   0  0  0  0  0  0
   41.0713   13.3354   82.7639 C   0  0  0  0  0  0
   42.2084   13.8492   82.0985 C   0  0  0  0  0  0
   42.8097   15.0445   82.5966 C   0  0  0  0  0  0
   42.3357   15.5805   83.8138 C   0  0  0  0  0  0
   41.2418   15.0274   84.4720 C   0  0  0  0  0  0
   44.0043   15.7176   81.9036 C   0  0  0  0  0  0
   43.7800   17.2461   81.7865 C   0  0  0  0  0  0
   45.2790   15.4673   82.7414 C   0  0  0  0  0  0
   44.2016   15.1822   80.4637 C   0  0  0  0  0  0
   44.0988   13.6635   80.3940 C   0  0  0  0  0  0
   42.7015   13.1495   80.8221 C   0  0  0  0  0  0
   42.8368   11.6230   81.0500 C   0  0  0  0  0  0
   41.6787   13.3920   79.6884 C   0  0  0  0  0  0
   38.4049   15.4834   85.3308 C   0  0  0  0  0  0
   37.4087   16.3219   86.0422 C   0  0  0  0  0  0
   37.4575   17.7291   86.0385 C   0  0  0  0  0  0
   36.4993   18.4748   86.7323 C   0  0  0  0  0  0
   35.4735   17.8332   87.4473 C   0  0  0  0  0  0
   34.4525   18.6111   88.1909 C   0  0  0  0  0  0
   33.5327   18.0081   88.8056 O   0  0  0  0  0  0
   34.4679   20.0052   88.2198 O   0  0  0  0  0  0
   35.4428   16.4287   87.4730 C   0  0  0  0  0  0
   36.4001   15.6833   86.7797 C   0  0  0  0  0  0
   35.1869   20.5523   87.7645 H   0  0  0  0  0  0
  1  2  1  0  0  0
  2  3  2  0  0  0
  2  4  1  0  0  0
  4  5  2  0  0  0
  5  6  1  0  0  0
  6  7  2  0  0  0
  7  8  1  0  0  0
  8  9  2  0  0  0
  7 10  1  0  0  0
 10 11  1  0  0  0
 10 12  1  0  0  0
 10 13  1  0  0  0
 13 14  1  0  0  0
 14 15  1  0  0  0
 15 16  1  0  0  0
 15 17  1  0  0  0
  1 18  2  0  0  0
 18 19  1  0  0  0
 19 20  2  0  0  0
 20 21  1  0  0  0
 21 22  2  0  0  0
 22 23  1  0  0  0
 23 24  2  0  0  0
 23 25  1  0  0  0
 22 26  1  0  0  0
 26 27  2  0  0  0
  9  4  1  0  0  0
 27 19  1  0  0  0
 15  6  1  0  0  0
 25 28  1  0  0  0
M  END
>  <CHROM.0>
-31.87364368,-57.59894562,-50.47448091,-177.77317971,-61.24464488,-68.83806408
-57.20801699,62.23339292,69.59498417,59.85781995,-67.90775181,61.65021831
57.12308709

>  <CHROM.1>
-174.38033320,-146.48657372,178.23246375,178.89929239,-2.02921800,39.81880383
15.44079504,84.22707391,2.64539177,0.56222882,0.25178761

>  <RI>
3.63097e+07

>  <Rbt.Current_Directory>
/extra/banzai2/j5wagner/CELPP/2016_10_17_rdock_implementation/normal_run/tutorialVideo/tutorial_rdock_implementation/full_week_run/4-docking/1fcz/hiResHolo_1fcy_docking

>  <Rbt.Executable>
rbdock ($Id: //depot/dev/client3/rdock/2013.1/src/exe/rbdock.cxx#4 $)

>  <Rbt.Library>
libRbt.so (2013.1, Build901 2013/11/27)

>  <Rbt.Parameter_File>
/home/j5wagner/env_00/source/rDock/rDock_2013.1_src//data/scripts/dock.prm

>  <Rbt.Receptor>
/extra/banzai2/j5wagner/CELPP/2016_10_17_rdock_implementation/normal_run/tutorialVideo/tutorial_rdock_implementation/full_week_run/4-docking/1fcz/hiResHolo_1fcy_tech_prep/rDockGridGenInput.prm

>  <SCORE>
-63.2244

>  <SCORE.INTER>
-32.1474

>  <SCORE.INTER.CONST>
1

>  <SCORE.INTER.POLAR>
-2.53167

>  <SCORE.INTER.REPUL>
0

>  <SCORE.INTER.ROT>
4

>  <SCORE.INTER.VDW>
-32.9397

>  <SCORE.INTER.norm>
-1.19065

>  <SCORE.INTRA>
-2.25103

>  <SCORE.INTRA.DIHEDRAL>
-6.32859

>  <SCORE.INTRA.DIHEDRAL.0>
10.7811

>  <SCORE.INTRA.POLAR>
0

>  <SCORE.INTRA.POLAR.0>
0

>  <SCORE.INTRA.REPUL>
0

>  <SCORE.INTRA.REPUL.0>
0

>  <SCORE.INTRA.VDW>
0.913267

>  <SCORE.INTRA.VDW.0>
-0.812999

>  <SCORE.INTRA.norm>
-0.0833714

>  <SCORE.RESTR>
0

>  <SCORE.RESTR.CAVITY>
0

>  <SCORE.RESTR.norm>
0

>  <SCORE.SYSTEM>
-28.826

>  <SCORE.SYSTEM.CONST>
0

>  <SCORE.SYSTEM.DIHEDRAL>
3.15229

>  <SCORE.SYSTEM.POLAR>
-8.20899

>  <SCORE.SYSTEM.VDW>
-2.49154

>  <SCORE.SYSTEM.norm>
-1.06763

>  <SCORE.heavy>
27

>  <SCORE.norm>
-2.34165

$$$$

  rDOCK(R)          3D
libRbt.so/2013.1/901 2013/11/27
 28 30  0  0  0  0  0  0  0  0999 V2000
   38.3925   13.9783   85.4294 C   0  0  0  0  0  0
   39.4298   13.2219   84.6965 C   0  0  0  0  0  0
   39.3493   11.9641   84.6855 O   0  0  0  0  0  0
   40.5623   13.8734   83.9944 C   0  0  0  0  0  0
   41.0534   13.3291   82.8018 C   0  0  0  0  0  0
   42.1527   13.9023   82.1217 C   0  0  0  0  0  0
   42.7143   15.1129   82.6288 C   0  0  0  0  0  0
   42.2456   15.6068   83.8657 C   0  0  0  0  0  0
   41.1908   14.9963   84.5370 C   0  0  0  0  0  0
   43.8637   15.8483   81.9228 C   0  0  0  0  0  0
   43.5729   17.3677   81.8390 C   0  0  0  0  0  0
   45.1663   15.6374   82.7281 C   0  0  0  0  0  0
   44.0512   15.3472   80.4693 C   0  0  0  0  0  0
   44.0106   13.8270   80.3736 C   0  0  0  0  0  0
   42.6460   13.2467   80.8221 C   0  0  0  0  0  0
   42.8504   11.7235   81.0187 C   0  0  0  0  0  0
   41.5888   13.4656   79.7155 C   0  0  0  0  0  0
   38.4163   15.3143   85.5469 C   0  0  0  0  0  0
   37.3870   16.0996   86.2717 C   0  0  0  0  0  0
   36.3020   15.4991   86.9388 C   0  0  0  0  0  0
   35.3528   16.2841   87.6007 C   0  0  0  0  0  0
   35.4633   17.6852   87.6091 C   0  0  0  0  0  0
   34.4620   18.5308   88.3040 C   0  0  0  0  0  0
   33.5000   17.9892   88.9112 O   0  0  0  0  0  0
   34.5423   19.9230   88.2944 O   0  0  0  0  0  0
   36.5310   18.2839   86.9193 C   0  0  0  0  0  0
   37.4797   17.4996   86.2579 C   0  0  0  0  0  0
   35.2917   20.4231   87.8342 H   0  0  0  0  0  0
  1  2  1  0  0  0
  2  3  2  0  0  0
  2  4  1  0  0  0
  4  5  2  0  0  0
  5  6  1  0  0  0
  6  7  2  0  0  0
  7  8  1  0  0  0
  8  9  2  0  0  0
  7 10  1  0  0  0
 10 11  1  0  0  0
 10 12  1  0  0  0
 10 13  1  0  0  0
 13 14  1  0  0  0
 14 15  1  0  0  0
 15 16  1  0  0  0
 15 17  1  0  0  0
  1 18  2  0  0  0
 18 19  1  0  0  0
 19 20  2  0  0  0
 20 21  1  0  0  0
 21 22  2  0  0  0
 22 23  1  0  0  0
 23 24  2  0  0  0
 23 25  1  0  0  0
 22 26  1  0  0  0
 26 27  2  0  0  0
  9  4  1  0  0  0
 27 19  1  0  0  0
 15  6  1  0  0  0
 25 28  1  0  0  0
M  END
>  <CHROM.0>
91.35852749,-57.18393993,176.81657718,-173.70390580,-62.11783093,167.35912804
-53.55665231,63.85202997,66.96224695,60.53457313,-59.31402181,64.78444728
61.98544329

>  <CHROM.1>
177.27947568,-145.01380198,1.82702998,0.73577640,-1.34420803,39.77703724
15.41501970,84.30426573,2.67234858,0.59201204,0.23172275

>  <RI>
3.63097e+07

>  <Rbt.Current_Directory>
/extra/banzai2/j5wagner/CELPP/2016_10_17_rdock_implementation/normal_run/tutorialVideo/tutorial_rdock_implementation/full_week_run/4-docking/1fcz/hiResHolo_1fcy_docking

>  <Rbt.Executable>
rbdock ($Id: //depot/dev/client3/rdock/2013.1/src/exe/rbdock.cxx#4 $)

>  <Rbt.Library>
libRbt.so (2013.1, Build901 2013/11/27)

>  <Rbt.Parameter_File>
/home/j5wagner/env_00/source/rDock/rDock_2013.1_src//data/scripts/dock.prm

>  <Rbt.Receptor>
/extra/banzai2/j5wagner/CELPP/2016_10_17_rdock_implementation/normal_run/tutorialVideo/tutorial_rdock_implementation/full_week_run/4-docking/1fcz/hiResHolo_1fcy_tech_prep/rDockGridGenInput.prm

>  <SCORE>
-63.127

>  <SCORE.INTER>
-32.3451

>  <SCORE.INTER.CONST>
1

>  <SCORE.INTER.POLAR>
-2.51258

>  <SCORE.INTER.REPUL>
0

>  <SCORE.INTER.ROT>
4

>  <SCORE.INTER.VDW>
-33.2024

>  <SCORE.INTER.norm>
-1.19797

>  <SCORE.INTRA>
-2.38326

>  <SCORE.INTRA.DIHEDRAL>
-6.11611

>  <SCORE.INTRA.DIHEDRAL.0>
10.7811

>  <SCORE.INTRA.POLAR>
0

>  <SCORE.INTRA.POLAR.0>
0

>  <SCORE.INTRA.REPUL>
0

>  <SCORE.INTRA.REPUL.0>
0

>  <SCORE.INTRA.VDW>
0.674792

>  <SCORE.INTRA.VDW.0>
-0.812999

>  <SCORE.INTRA.norm>
-0.088269

>  <SCORE.RESTR>
0

>  <SCORE.RESTR.CAVITY>
0

>  <SCORE.RESTR.norm>
0

>  <SCORE.SYSTEM>
-28.3986

>  <SCORE.SYSTEM.CONST>
0

>  <SCORE.SYSTEM.DIHEDRAL>
3.15331

>  <SCORE.SYSTEM.POLAR>
-7.91026

>  <SCORE.SYSTEM.VDW>
-3.08037

>  <SCORE.SYSTEM.norm>
-1.0518

>  <SCORE.heavy>
27

>  <SCORE.norm>
-2.33804

$$$$

  rDOCK(R)          3D
libRbt.so/2013.1/901 2013/11/27
 28 30  0  0  0  0  0  0  0  0999 V2000
   38.4062   14.1736   85.3719 C   0  0  0  0  0  0
   39.4112   13.3643   84.6506 C   0  0  0  0  0  0
   39.2560   12.1137   84.6234 O   0  0  0  0  0  0
   40.5944   13.9541   83.9785 C   0  0  0  0  0  0
   41.0868   13.3833   82.7988 C   0  0  0  0  0  0
   42.2322   13.8968   82.1477 C   0  0  0  0  0  0
   42.8438   15.0766   82.6696 C   0  0  0  0  0  0
   42.3699   15.5959   83.8941 C   0  0  0  0  0  0
   41.2672   15.0428   84.5375 C   0  0  0  0  0  0
   44.0485   15.7493   81.9940 C   0  0  0  0  0  0
   43.8408   17.2819   81.9031 C   0  0  0  0  0  0
   45.3167   15.4706   82.8328 C   0  0  0  0  0  0
   44.2468   15.2374   80.5457 C   0  0  0  0  0  0
   44.1283   13.7214   80.4485 C   0  0  0  0  0  0
   42.7237   13.2147   80.8612 C   0  0  0  0  0  0
   42.8420   11.6830   81.0625 C   0  0  0  0  0  0
   41.7087   13.4880   79.7276 C   0  0  0  0  0  0
   38.4330   15.5146   85.3908 C   0  0  0  0  0  0
   37.4357   16.3522   86.1015 C   0  0  0  0  0  0
   37.5079   17.7580   86.1342 C   0  0  0  0  0  0
   36.5473   18.5027   86.8257 C   0  0  0  0  0  0
   35.4956   17.8613   87.5023 C   0  0  0  0  0  0
   34.4716   18.6380   88.2430 C   0  0  0  0  0  0
   33.5503   18.0340   88.8544 O   0  0  0  0  0  0
   34.4859   20.0321   88.2728 O   0  0  0  0  0  0
   35.4410   16.4573   87.4920 C   0  0  0  0  0  0
   36.4007   15.7130   86.8009 C   0  0  0  0  0  0
   35.2057   20.5801   87.8199 H   0  0  0  0  0  0
  1  2  1  0  0  0
  2  3  2  0  0  0
  2  4  1  0  0  0
  4  5  2  0  0  0
  5  6  1  0  0  0
  6  7  2  0  0  0
  7  8  1  0  0  0
  8  9  2  0  0  0
  7 10  1  0  0  0
 10 11  1  0  0  0
 10 12  1  0  0  0
 10 13  1  0  0  0
 13 14  1  0  0  0
 14 15  1  0  0  0
 15 16  1  0  0  0
 15 17  1  0  0  0
  1 18  2  0  0  0
 18 19  1  0  0  0
 19 20  2  0  0  0
 20 21  1  0  0  0
 21 22  2  0  0  0
 22 23  1  0  0  0
 23 24  2  0  0  0
 23 25  1  0  0  0
 22 26  1  0  0  0
 26 27  2  0  0  0
  9  4  1  0  0  0
 27 19  1  0  0  0
 15  6  1  0  0  0
 25 28  1  0  0  0
M  END
>  <CHROM.0>
-27.19940685,-56.30883698,175.88463460,-175.32781399,-57.76996547,175.96843880
-52.18140268,61.19026192,70.31901692,62.05064728,70.58828164,64.66900689
176.48869804

>  <CHROM.1>
-175.76511665,-145.85433506,178.27717661,-179.08272477,-2.00510489,39.84339021
15.47719686,84.28241624,2.63818442,0.55301769,0.26954009

>  <RI>
3.63097e+07

>  <Rbt.Current_Directory>
/extra/banzai2/j5wagner/CELPP/2016_10_17_rdock_implementation/normal_run/tutorialVideo/tutorial_rdock_implementation/full_week_run/4-docking/1fcz/hiResHolo_1fcy_docking

>  <Rbt.Executable>
rbdock ($Id: //depot/dev/client3/rdock/2013.1/src/exe/rbdock.cxx#4 $)

>  <Rbt.Library>
libRbt.so (2013.1, Build901 2013/11/27)

>  <Rbt.Parameter_File>
/home/j5wagner/env_00/source/rDock/rDock_2013.1_src//data/scripts/dock.prm

>  <Rbt.Receptor>
/extra/banzai2/j5wagner/CELPP/2016_10_17_rdock_implementation/normal_run/tutorialVideo/tutorial_rdock_implementation/full_week_run/4-docking/1fcz/hiResHolo_1fcy_tech_prep/rDockGridGenInput.prm

>  <SCORE>
-62.1957

>  <SCORE.INTER>
-32.127

>  <SCORE.INTER.CONST>
1

>  <SCORE.INTER.POLAR>
-2.53071

>  <SCORE.INTER.REPUL>
0

>  <SCORE.INTER.ROT>
4

>  <SCORE.INTER.VDW>
-32.9226

>  <SCORE.INTER.norm>
-1.18989

>  <SCORE.INTRA>
-2.21559

>  <SCORE.INTRA.DIHEDRAL>
-6.25301

>  <SCORE.INTRA.DIHEDRAL.0>
10.7811

>  <SCORE.INTRA.POLAR>
0

>  <SCORE.INTRA.POLAR.0>
0

>  <SCORE.INTRA.REPUL>
0

>  <SCORE.INTRA.REPUL.0>
0

>  <SCORE.INTRA.VDW>
0.910918

>  <SCORE.INTRA.VDW.0>
-0.812999

>  <SCORE.INTRA.norm>
-0.0820587

>  <SCORE.RESTR>
0

>  <SCORE.RESTR.CAVITY>
0

>  <SCORE.RESTR.norm>
0

>  <SCORE.SYSTEM>
-27.8532

>  <SCORE.SYSTEM.CONST>
0

>  <SCORE.SYSTEM.DIHEDRAL>
3.84413

>  <SCORE.SYSTEM.POLAR>
-7.85432

>  <SCORE.SYSTEM.VDW>
-3.07053

>  <SCORE.SYSTEM.norm>
-1.0316

>  <SCORE.heavy>
27

>  <SCORE.norm>
-2.30355

$$$$

  rDOCK(R)          3D
libRbt.so/2013.1/901 2013/11/27
 28 30  0  0  0  0  0  0  0  0999 V2000
   38.4394   14.0740   85.4980 C   0  0  0  0  0  0
   39.4611   13.2697   84.7948 C   0  0  0  0  0  0
   39.3442   12.0149   84.8148 O   0  0  0  0  0  0
   40.6185   13.8702   84.0880 C   0  0  0  0  0  0
   41.0591   13.3246   82.8764 C   0  0  0  0  0  0
   42.1792   13.8485   82.1903 C   0  0  0  0  0  0
   42.8174   15.0137   82.7132 C   0  0  0  0  0  0
   42.3968   15.5067   83.9677 C   0  0  0  0  0  0
   41.3189   14.9432   84.6433 C   0  0  0  0  0  0
   43.9965   15.6970   82.0038 C   0  0  0  0  0  0
   43.7926   17.2321   81.9564 C   0  0  0  0  0  0
   45.2968   15.3943   82.7831 C   0  0  0  0  0  0
   44.1325   15.2176   80.5374 C   0  0  0  0  0  0
   44.0029   13.7047   80.4108 C   0  0  0  0  0  0
   42.6141   13.1941   80.8695 C   0  0  0  0  0  0
   42.7333   11.6577   81.0310 C   0  0  0  0  0  0
   41.5546   13.4972   79.7852 C   0  0  0  0  0  0
   38.4618   15.4150   85.5212 C   0  0  0  0  0  0
   37.4478   16.2476   86.2140 C   0  0  0  0  0  0
   37.4624   17.6550   86.1730 C   0  0  0  0  0  0
   36.4886   18.3954   86.8505 C   0  0  0  0  0  0
   35.4809   17.7483   87.5861 C   0  0  0  0  0  0
   34.4435   18.5207   88.3126 C   0  0  0  0  0  0
   33.5195   17.9126   88.9158 O   0  0  0  0  0  0
   34.4483   19.9149   88.3378 O   0  0  0  0  0  0
   35.4844   16.3446   87.6489 C   0  0  0  0  0  0
   36.4573   15.6046   86.9719 C   0  0  0  0  0  0
   35.1540   20.4666   87.8675 H   0  0  0  0  0  0
  1  2  1  0  0  0
  2  3  2  0  0  0
  2  4  1  0  0  0
  4  5  2  0  0  0
  5  6  1  0  0  0
  6  7  2  0  0  0
  7  8  1  0  0  0
  8  9  2  0  0  0
  7 10  1  0  0  0
 10 11  1  0  0  0
 10 12  1  0  0  0
 10 13  1  0  0  0
 13 14  1  0  0  0
 14 15  1  0  0  0
 15 16  1  0  0  0
 15 17  1  0  0  0
  1 18  2  0  0  0
 18 19  1  0  0  0
 19 20  2  0  0  0
 20 21  1  0  0  0
 21 22  2  0  0  0
 22 23  1  0  0  0
 23 24  2  0  0  0
 23 25  1  0  0  0
 22 26  1  0  0  0
 26 27  2  0  0  0
  9  4  1  0  0  0
 27 19  1  0  0  0
 15  6  1  0  0  0
 25 28  1  0  0  0
M  END
>  <CHROM.0>
93.04619242,-55.30499238,70.24010089,-56.78321190,177.03500748,-66.26165336
-52.57939864,179.87406896,65.56441853,59.85560826,-62.39372584,64.02877315
-179.59283583

>  <CHROM.1>
-179.04522891,-141.55517516,-177.12629897,176.94990642,-0.11311537,39.81848827
15.40002615,84.34920043,2.65782677,0.57537203,0.24270173

>  <RI>
3.63097e+07

>  <Rbt.Current_Directory>
/extra/banzai2/j5wagner/CELPP/2016_10_17_rdock_implementation/normal_run/tutorialVideo/tutorial_rdock_implementation/full_week_run/4-docking/1fcz/hiResHolo_1fcy_docking

>  <Rbt.Executable>
rbdock ($Id: //depot/dev/client3/rdock/2013.1/src/exe/rbdock.cxx#4 $)

>  <Rbt.Library>
libRbt.so (2013.1, Build901 2013/11/27)

>  <Rbt.Parameter_File>
/home/j5wagner/env_00/source/rDock/rDock_2013.1_src//data/scripts/dock.prm

>  <Rbt.Receptor>
/extra/banzai2/j5wagner/CELPP/2016_10_17_rdock_implementation/normal_run/tutorialVideo/tutorial_rdock_implementation/full_week_run/4-docking/1fcz/hiResHolo_1fcy_tech_prep/rDockGridGenInput.prm

>  <SCORE>
-61.4443

>  <SCORE.INTER>
-29.3713

>  <SCORE.INTER.CONST>
1

>  <SCORE.INTER.POLAR>
-1.65573

>  <SCORE.INTER.REPUL>
0

>  <SCORE.INTER.ROT>
4

>  <SCORE.INTER.VDW>
-33.1418

>  <SCORE.INTER.norm>
-1.08783

>  <SCORE.INTRA>
-1.89733

>  <SCORE.INTRA.DIHEDRAL>
-5.31261

>  <SCORE.INTRA.DIHEDRAL.0>
10.7811

>  <SCORE.INTRA.POLAR>
0

>  <SCORE.INTRA.POLAR.0>
0

>  <SCORE.INTRA.REPUL>
0

>  <SCORE.INTRA.REPUL.0>
0

>  <SCORE.INTRA.VDW>
0.758976

>  <SCORE.INTRA.VDW.0>
-0.812999

>  <SCORE.INTRA.norm>
-0.0702714

>  <SCORE.RESTR>
0

>  <SCORE.RESTR.CAVITY>
0

>  <SCORE.RESTR.norm>
0

>  <SCORE.SYSTEM>
-30.1756

>  <SCORE.SYSTEM.CONST>
0

>  <SCORE.SYSTEM.DIHEDRAL>
3.38095

>  <SCORE.SYSTEM.POLAR>
-8.15311

>  <SCORE.SYSTEM.VDW>
-4.14555

>  <SCORE.SYSTEM.norm>
-1.11762

>  <SCORE.heavy>
27

>  <SCORE.norm>
-2.27571

$$$$

  rDOCK(R)          3D
libRbt.so/2013.1/901 2013/11/27
 28 30  0  0  0  0  0  0  0  0999 V2000
   38.3857   14.0244   85.4202 C   0  0  0  0  0  0
   39.3748   13.2591   84.6320 C   0  0  0  0  0  0
   39.2317   12.0092   84.5549 O   0  0  0  0  0  0
   40.5293   13.8914   83.9486 C   0  0  0  0  0  0
   41.0301   13.3392   82.7637 C   0  0  0  0  0  0
   42.1498   13.8939   82.1017 C   0  0  0  0  0  0
   42.7236   15.0948   82.6183 C   0  0  0  0  0  0
   42.2434   15.5962   83.8478 C   0  0  0  0  0  0
   41.1678   15.0035   84.5017 C   0  0  0  0  0  0
   43.8965   15.8107   81.9313 C   0  0  0  0  0  0
   43.6328   17.3349   81.8435 C   0  0  0  0  0  0
   45.1822   15.5777   82.7573 C   0  0  0  0  0  0
   44.0987   15.3069   80.4808 C   0  0  0  0  0  0
   44.0340   13.7876   80.3837 C   0  0  0  0  0  0
   42.6528   13.2304   80.8099 C   0  0  0  0  0  0
   42.8283   11.7039   81.0090 C   0  0  0  0  0  0
   41.6174   13.4674   79.6865 C   0  0  0  0  0  0
   38.3894   15.3643   85.4839 C   0  0  0  0  0  0
   37.4069   16.1584   86.2621 C   0  0  0  0  0  0
   36.3178   15.5725   86.9354 C   0  0  0  0  0  0
   35.4139   16.3657   87.6488 C   0  0  0  0  0  0
   35.5747   17.7609   87.7037 C   0  0  0  0  0  0
   34.6216   18.6153   88.4535 C   0  0  0  0  0  0
   33.5672   18.1112   88.9242 O   0  0  0  0  0  0
   34.8490   19.9779   88.6438 O   0  0  0  0  0  0
   36.6459   18.3464   87.0081 C   0  0  0  0  0  0
   37.5494   17.5539   86.2953 C   0  0  0  0  0  0
   34.1894   20.5799   89.1193 H   0  0  0  0  0  0
  1  2  1  0  0  0
  2  3  2  0  0  0
  2  4  1  0  0  0
  4  5  2  0  0  0
  5  6  1  0  0  0
  6  7  2  0  0  0
  7  8  1  0  0  0
  8  9  2  0  0  0
  7 10  1  0  0  0
 10 11  1  0  0  0
 10 12  1  0  0  0
 10 13  1  0  0  0
 13 14  1  0  0  0
 14 15  1  0  0  0
 15 16  1  0  0  0
 15 17  1  0  0  0
  1 18  2  0  0  0
 18 19  1  0  0  0
 19 20  2  0  0  0
 20 21  1  0  0  0
 21 22  2  0  0  0
 22 23  1  0  0  0
 23 24  2  0  0  0
 23 25  1  0  0  0
 22 26  1  0  0  0
 26 27  2  0  0  0
  9  4  1  0  0  0
 27 19  1  0  0  0
 15  6  1  0  0  0
 25 28  1  0  0  0
M  END
>  <CHROM.0>
-23.14926144,-56.09334562,72.38273684,-60.77866166,-59.30145036,-65.00889540
-53.79456286,64.52177116,67.09372727,59.08388062,-64.20421318,61.92620141
-55.47648254

>  <CHROM.1>
-174.92544677,-148.99517814,-4.51239398,-8.12599206,177.37183967,39.80612893
15.43746166,84.32194538,2.62608561,0.57953204,0.29131926

>  <RI>
3.63097e+07

>  <Rbt.Current_Directory>
/extra/banzai2/j5wagner/CELPP/2016_10_17_rdock_implementation/normal_run/tutorialVideo/tutorial_rdock_implementation/full_week_run/4-docking/1fcz/hiResHolo_1fcy_docking

>  <Rbt.Executable>
rbdock ($Id: //depot/dev/client3/rdock/2013.1/src/exe/rbdock.cxx#4 $)

>  <Rbt.Library>
libRbt.so (2013.1, Build901 2013/11/27)

>  <Rbt.Parameter_File>
/home/j5wagner/env_00/source/rDock/rDock_2013.1_src//data/scripts/dock.prm

>  <Rbt.Receptor>
/extra/banzai2/j5wagner/CELPP/2016_10_17_rdock_implementation/normal_run/tutorialVideo/tutorial_rdock_implementation/full_week_run/4-docking/1fcz/hiResHolo_1fcy_tech_prep/rDockGridGenInput.prm

>  <SCORE>
-60.9988

>  <SCORE.INTER>
-28.3362

>  <SCORE.INTER.CONST>
1

>  <SCORE.INTER.POLAR>
-1.63608

>  <SCORE.INTER.REPUL>
0

>  <SCORE.INTER.ROT>
4

>  <SCORE.INTER.VDW>
-32.1735

>  <SCORE.INTER.norm>
-1.04949

>  <SCORE.INTRA>
-2.5476

>  <SCORE.INTRA.DIHEDRAL>
-6.5392

>  <SCORE.INTRA.DIHEDRAL.0>
10.7811

>  <SCORE.INTRA.POLAR>
0

>  <SCORE.INTRA.POLAR.0>
0

>  <SCORE.INTRA.REPUL>
0

>  <SCORE.INTRA.REPUL.0>
0

>  <SCORE.INTRA.VDW>
0.722006

>  <SCORE.INTRA.VDW.0>
-0.812999

>  <SCORE.INTRA.norm>
-0.0943554

>  <SCORE.RESTR>
0

>  <SCORE.RESTR.CAVITY>
0

>  <SCORE.RESTR.norm>
0

>  <SCORE.SYSTEM>
-30.115

>  <SCORE.SYSTEM.CONST>
0

>  <SCORE.SYSTEM.DIHEDRAL>
4.00559

>  <SCORE.SYSTEM.POLAR>
-8.07822

>  <SCORE.SYSTEM.VDW>
-4.65187

>  <SCORE.SYSTEM.norm>
-1.11537

>  <SCORE.heavy>
27

>  <SCORE.norm>
-2.25922

$$$$

  rDOCK(R)          3D
libRbt.so/2013.1/901 2013/11/27
 28 30  0  0  0  0  0  0  0  0999 V2000
   38.6922   13.6543   85.4929 C   0  0  0  0  0  0
   39.6310   12.9613   84.5854 C   0  0  0  0  0  0
   39.4605   11.7286   84.3851 O   0  0  0  0  0  0
   40.7669   13.6447   83.9201 C   0  0  0  0  0  0
   41.2532   13.1663   82.6976 C   0  0  0  0  0  0
   42.3554   13.7706   82.0497 C   0  0  0  0  0  0
   42.9251   14.9468   82.6243 C   0  0  0  0  0  0
   42.4608   15.3722   83.8881 C   0  0  0  0  0  0
   41.4030   14.7309   84.5249 C   0  0  0  0  0  0
   44.0784   15.7141   81.9598 C   0  0  0  0  0  0
   43.7971   17.2376   81.9633 C   0  0  0  0  0  0
   45.3805   15.4495   82.7499 C   0  0  0  0  0  0
   44.2611   15.2956   80.4798 C   0  0  0  0  0  0
   44.2109   13.7837   80.2976 C   0  0  0  0  0  0
   42.8432   13.1873   80.7142 C   0  0  0  0  0  0
   43.0382   11.6541   80.8232 C   0  0  0  0  0  0
   41.7862   13.4755   79.6234 C   0  0  0  0  0  0
   38.5185   14.9843   85.4789 C   0  0  0  0  0  0
   37.5804   15.7057   86.3738 C   0  0  0  0  0  0
   37.0045   15.1095   87.5120 C   0  0  0  0  0  0
   36.1185   15.8294   88.3195 C   0  0  0  0  0  0
   35.7852   17.1587   88.0077 C   0  0  0  0  0  0
   34.8440   17.9334   88.8530 C   0  0  0  0  0  0
   34.2000   18.8937   88.3526 O   0  0  0  0  0  0
   34.6575   17.6404   90.2035 O   0  0  0  0  0  0
   36.3390   17.7428   86.8560 C   0  0  0  0  0  0
   37.2245   17.0236   86.0491 C   0  0  0  0  0  0
   33.9816   18.1260   90.7788 H   0  0  0  0  0  0
  1  2  1  0  0  0
  2  3  2  0  0  0
  2  4  1  0  0  0
  4  5  2  0  0  0
  5  6  1  0  0  0
  6  7  2  0  0  0
  7  8  1  0  0  0
  8  9  2  0  0  0
  7 10  1  0  0  0
 10 11  1  0  0  0
 10 12  1  0  0  0
 10 13  1  0  0  0
 13 14  1  0  0  0
 14 15  1  0  0  0
 15 16  1  0  0  0
 15 17  1  0  0  0
  1 18  2  0  0  0
 18 19  1  0  0  0
 19 20  2  0  0  0
 20 21  1  0  0  0
 21 22  2  0  0  0
 22 23  1  0  0  0
 23 24  2  0  0  0
 23 25  1  0  0  0
 22 26  1  0  0  0
 26 27  2  0  0  0
  9  4  1  0  0  0
 27 19  1  0  0  0
 15  6  1  0  0  0
 25 28  1  0  0  0
M  END
>  <CHROM.0>
95.72488642,-57.91063097,70.04040433,58.01931350,-62.94795495,-70.55857643
-53.88344782,-166.63989518,67.18033680,58.76433434,-60.81286247,62.69529362
-172.33003383

>  <CHROM.1>
-159.69460457,-152.55388748,14.36783124,-155.02813379,-176.47072138,40.00849365
15.12113643,84.40725047,2.67218565,0.62783075,0.29784980

>  <RI>
3.63097e+07

>  <Rbt.Current_Directory>
/extra/banzai2/j5wagner/CELPP/2016_10_17_rdock_implementation/normal_run/tutorialVideo/tutorial_rdock_implementation/full_week_run/4-docking/1fcz/hiResHolo_1fcy_docking

>  <Rbt.Executable>
rbdock ($Id: //depot/dev/client3/rdock/2013.1/src/exe/rbdock.cxx#4 $)

>  <Rbt.Library>
libRbt.so (2013.1, Build901 2013/11/27)

>  <Rbt.Parameter_File>
/home/j5wagner/env_00/source/rDock/rDock_2013.1_src//data/scripts/dock.prm

>  <Rbt.Receptor>
/extra/banzai2/j5wagner/CELPP/2016_10_17_rdock_implementation/normal_run/tutorialVideo/tutorial_rdock_implementation/full_week_run/4-docking/1fcz/hiResHolo_1fcy_tech_prep/rDockGridGenInput.prm

>  <SCORE>
-60.966

>  <SCORE.INTER>
-30.2156

>  <SCORE.INTER.CONST>
1

>  <SCORE.INTER.POLAR>
-1.95364

>  <SCORE.INTER.REPUL>
0

>  <SCORE.INTER.ROT>
4

>  <SCORE.INTER.VDW>
-32.9732

>  <SCORE.INTER.norm>
-1.1191

>  <SCORE.INTRA>
-1.10079

>  <SCORE.INTRA.DIHEDRAL>
-3.05004

>  <SCORE.INTRA.DIHEDRAL.0>
10.7811

>  <SCORE.INTRA.POLAR>
0

>  <SCORE.INTRA.POLAR.0>
0

>  <SCORE.INTRA.REPUL>
0

>  <SCORE.INTRA.REPUL.0>
0

>  <SCORE.INTRA.VDW>
0.424234

>  <SCORE.INTRA.VDW.0>
-0.812999

>  <SCORE.INTRA.norm>
-0.0407699

>  <SCORE.RESTR>
0

>  <SCORE.RESTR.CAVITY>
0

>  <SCORE.RESTR.norm>
0

>  <SCORE.SYSTEM>
-29.6496

>  <SCORE.SYSTEM.CONST>
0

>  <SCORE.SYSTEM.DIHEDRAL>
4.61807

>  <SCORE.SYSTEM.POLAR>
-8.08247

>  <SCORE.SYSTEM.VDW>
-4.47824

>  <SCORE.SYSTEM.norm>
-1.09813

>  <SCORE.heavy>
27

>  <SCORE.norm>
-2.258

$$$$

  rDOCK(R)          3D
libRbt.so/2013.1/901 2013/11/27
 28 30  0  0  0  0  0  0  0  0999 V2000
   38.5240   14.0031   85.3900 C   0  0  0  0  0  0
   39.5373   13.2235   84.6480 C   0  0  0  0  0  0
   39.4174   11.9691   84.6219 O   0  0  0  0  0  0
   40.6899   13.8476   83.9538 C   0  0  0  0  0  0
   41.1629   13.3037   82.7537 C   0  0  0  0  0  0
   42.2798   13.8504   82.0804 C   0  0  0  0  0  0
   42.8801   15.0356   82.6031 C   0  0  0  0  0  0
   42.4278   15.5278   83.8468 C   0  0  0  0  0  0
   41.3542   14.9425   84.5107 C   0  0  0  0  0  0
   44.0523   15.7430   81.9060 C   0  0  0  0  0  0
   43.8103   17.2719   81.8425 C   0  0  0  0  0  0
   45.3477   15.4798   82.7075 C   0  0  0  0  0  0
   44.2231   15.2555   80.4459 C   0  0  0  0  0  0
   44.1338   13.7388   80.3302 C   0  0  0  0  0  0
   42.7515   13.1966   80.7719 C   0  0  0  0  0  0
   42.9070   11.6652   80.9482 C   0  0  0  0  0  0
   41.7015   13.4639   79.6691 C   0  0  0  0  0  0
   38.5292   15.3438   85.4334 C   0  0  0  0  0  0
   37.5229   16.1519   86.1653 C   0  0  0  0  0  0
   36.4824   15.5725   86.9165 C   0  0  0  0  0  0
   35.5530   16.3782   87.5818 C   0  0  0  0  0  0
   35.6393   17.7792   87.5098 C   0  0  0  0  0  0
   34.6585   18.6463   88.2072 C   0  0  0  0  0  0
   34.8336   19.8937   88.2319 O   0  0  0  0  0  0
   33.5434   18.1190   88.8577 O   0  0  0  0  0  0
   36.6615   18.3552   86.7368 C   0  0  0  0  0  0
   37.5904   17.5504   86.0721 C   0  0  0  0  0  0
   33.3707   17.1244   88.9250 H   0  0  0  0  0  0
  1  2  1  0  0  0
  2  3  2  0  0  0
  2  4  1  0  0  0
  4  5  2  0  0  0
  5  6  1  0  0  0
  6  7  2  0  0  0
  7  8  1  0  0  0
  8  9  2  0  0  0
  7 10  1  0  0  0
 10 11  1  0  0  0
 10 12  1  0  0  0
 10 13  1  0  0  0
 13 14  1  0  0  0
 14 15  1  0  0  0
 15 16  1  0  0  0
 15 17  1  0  0  0
  1 18  2  0  0  0
 18 19  1  0  0  0
 19 20  2  0  0  0
 20 21  1  0  0  0
 21 22  2  0  0  0
 22 23  1  0  0  0
 23 24  2  0  0  0
 23 25  1  0  0  0
 22 26  1  0  0  0
 26 27  2  0  0  0
  9  4  1  0  0  0
 27 19  1  0  0  0
 15  6  1  0  0  0
 25 28  1  0  0  0
M  END
>  <CHROM.0>
-29.91418240,-57.02733764,175.00018899,-177.55345926,60.53290261,49.48567802
-52.43851761,69.92068536,68.03680985,60.30789820,-62.28059150,63.19305727
-176.89227356

>  <CHROM.1>
-177.19705615,-144.92356528,1.75010715,173.20591561,2.97332273,39.91683919
15.39565772,84.25025536,2.65396493,0.57818030,0.25027403

>  <RI>
3.63097e+07

>  <Rbt.Current_Directory>
/extra/banzai2/j5wagner/CELPP/2016_10_17_rdock_implementation/normal_run/tutorialVideo/tutorial_rdock_implementation/full_week_run/4-docking/1fcz/hiResHolo_1fcy_docking

>  <Rbt.Executable>
rbdock ($Id: //depot/dev/client3/rdock/2013.1/src/exe/rbdock.cxx#4 $)

>  <Rbt.Library>
libRbt.so (2013.1, Build901 2013/11/27)

>  <Rbt.Parameter_File>
/home/j5wagner/env_00/source/rDock/rDock_2013.1_src//data/scripts/dock.prm

>  <Rbt.Receptor>
/extra/banzai2/j5wagner/CELPP/2016_10_17_rdock_implementation/normal_run/tutorialVideo/tutorial_rdock_implementation/full_week_run/4-docking/1fcz/hiResHolo_1fcy_tech_prep/rDockGridGenInput.prm

>  <SCORE>
-60.7871

>  <SCORE.INTER>
-29.6552

>  <SCORE.INTER.CONST>
1

>  <SCORE.INTER.POLAR>
-1.74563

>  <SCORE.INTER.REPUL>
0

>  <SCORE.INTER.ROT>
4

>  <SCORE.INTER.VDW>
-33.12

>  <SCORE.INTER.norm>
-1.09834

>  <SCORE.INTRA>
-2.34116

>  <SCORE.INTRA.DIHEDRAL>
-5.81387

>  <SCORE.INTRA.DIHEDRAL.0>
10.7811

>  <SCORE.INTRA.POLAR>
0

>  <SCORE.INTRA.POLAR.0>
0

>  <SCORE.INTRA.REPUL>
0

>  <SCORE.INTRA.REPUL.0>
0

>  <SCORE.INTRA.VDW>
0.565779

>  <SCORE.INTRA.VDW.0>
-0.812999

>  <SCORE.INTRA.norm>
-0.0867095

>  <SCORE.RESTR>
0

>  <SCORE.RESTR.CAVITY>
0

>  <SCORE.RESTR.norm>
0

>  <SCORE.SYSTEM>
-28.7907

>  <SCORE.SYSTEM.CONST>
0

>  <SCORE.SYSTEM.DIHEDRAL>
3.43345

>  <SCORE.SYSTEM.POLAR>
-8.01309

>  <SCORE.SYSTEM.VDW>
-3.26295

>  <SCORE.SYSTEM.norm>
-1.06632

>  <SCORE.heavy>
27

>  <SCORE.norm>
-2.25137

$$$$

  rDOCK(R)          3D
libRbt.so/2013.1/901 2013/11/27
 28 30  0  0  0  0  0  0  0  0999 V2000
   39.3014   14.6027   85.0616 C   0  0  0  0  0  0
   40.2764   13.6743   84.4513 C   0  0  0  0  0  0
   40.0622   12.4367   84.5566 O   0  0  0  0  0  0
   41.4957   14.1324   83.7417 C   0  0  0  0  0  0
   41.9557   13.4355   82.6181 C   0  0  0  0  0  0
   43.1323   13.8218   81.9356 C   0  0  0  0  0  0
   43.8135   15.0019   82.3618 C   0  0  0  0  0  0
   43.3686   15.6502   83.5346 C   0  0  0  0  0  0
   42.2322   15.2213   84.2131 C   0  0  0  0  0  0
   45.0592   15.5408   81.6421 C   0  0  0  0  0  0
   44.9461   17.0701   81.4214 C   0  0  0  0  0  0
   46.3054   15.2571   82.5116 C   0  0  0  0  0  0
   45.2301   14.8978   80.2434 C   0  0  0  0  0  0
   45.0193   13.3891   80.2726 C   0  0  0  0  0  0
   43.5850   13.0052   80.7149 C   0  0  0  0  0  0
   43.6086   11.4915   81.0448 C   0  0  0  0  0  0
   42.5921   13.2435   79.5541 C   0  0  0  0  0  0
   38.4122   14.2145   85.9880 C   0  0  0  0  0  0
   37.4260   15.1246   86.6209 C   0  0  0  0  0  0
   36.6434   14.7463   87.7286 C   0  0  0  0  0  0
   35.7208   15.6382   88.2842 C   0  0  0  0  0  0
   35.5565   16.9258   87.7452 C   0  0  0  0  0  0
   34.5791   17.8812   88.3217 C   0  0  0  0  0  0
   34.3105   18.9477   87.7071 O   0  0  0  0  0  0
   33.9515   17.6427   89.5439 O   0  0  0  0  0  0
   36.3182   17.2916   86.6226 C   0  0  0  0  0  0
   37.2403   16.4005   86.0674 C   0  0  0  0  0  0
   33.3370   18.3163   89.9823 H   0  0  0  0  0  0
  1  2  1  0  0  0
  2  3  2  0  0  0
  2  4  1  0  0  0
  4  5  2  0  0  0
  5  6  1  0  0  0
  6  7  2  0  0  0
  7  8  1  0  0  0
  8  9  2  0  0  0
  7 10  1  0  0  0
 10 11  1  0  0  0
 10 12  1  0  0  0
 10 13  1  0  0  0
 13 14  1  0  0  0
 14 15  1  0  0  0
 15 16  1  0  0  0
 15 17  1  0  0  0
  1 18  2  0  0  0
 18 19  1  0  0  0
 19 20  2  0  0  0
 20 21  1  0  0  0
 21 22  2  0  0  0
 22 23  1  0  0  0
 23 24  2  0  0  0
 23 25  1  0  0  0
 22 26  1  0  0  0
 26 27  2  0  0  0
  9  4  1  0  0  0
 27 19  1  0  0  0
 15  6  1  0  0  0
 25 28  1  0  0  0
M  END
>  <CHROM.0>
-27.11391497,-56.09574022,69.81771357,-54.51068918,-56.36586206,-71.10682591
-49.02583801,-173.15513566,68.85016325,61.11778994,-63.63381404,63.08327660
-54.98853520

>  <CHROM.1>
17.38042245,-144.10452544,-170.12936820,-169.61057161,175.25622292,40.43345289
15.08145349,84.24221001,2.75609836,0.57089096,0.25289638

>  <RI>
3.63097e+07

>  <Rbt.Current_Directory>
/extra/banzai2/j5wagner/CELPP/2016_10_17_rdock_implementation/normal_run/tutorialVideo/tutorial_rdock_implementation/full_week_run/4-docking/1fcz/hiResHolo_1fcy_docking

>  <Rbt.Executable>
rbdock ($Id: //depot/dev/client3/rdock/2013.1/src/exe/rbdock.cxx#4 $)

>  <Rbt.Library>
libRbt.so (2013.1, Build901 2013/11/27)

>  <Rbt.Parameter_File>
/home/j5wagner/env_00/source/rDock/rDock_2013.1_src//data/scripts/dock.prm

>  <Rbt.Receptor>
/extra/banzai2/j5wagner/CELPP/2016_10_17_rdock_implementation/normal_run/tutorialVideo/tutorial_rdock_implementation/full_week_run/4-docking/1fcz/hiResHolo_1fcy_tech_prep/rDockGridGenInput.prm

>  <SCORE>
-60.5658

>  <SCORE.INTER>
-29.2118

>  <SCORE.INTER.CONST>
1

>  <SCORE.INTER.POLAR>
-1.76056

>  <SCORE.INTER.REPUL>
0.00598983

>  <SCORE.INTER.ROT>
4

>  <SCORE.INTER.VDW>
-32.6558

>  <SCORE.INTER.norm>
-1.08192

>  <SCORE.INTRA>
-1.21396

>  <SCORE.INTRA.DIHEDRAL>
-3.93426

>  <SCORE.INTRA.DIHEDRAL.0>
10.7811

>  <SCORE.INTRA.POLAR>
0

>  <SCORE.INTRA.POLAR.0>
0

>  <SCORE.INTRA.REPUL>
0

>  <SCORE.INTRA.REPUL.0>
0

>  <SCORE.INTRA.VDW>
0.753171

>  <SCORE.INTRA.VDW.0>
-0.812999

>  <SCORE.INTRA.norm>
-0.0449614

>  <SCORE.RESTR>
0

>  <SCORE.RESTR.CAVITY>
0

>  <SCORE.RESTR.norm>
0

>  <SCORE.SYSTEM>
-30.1401

>  <SCORE.SYSTEM.CONST>
0

>  <SCORE.SYSTEM.DIHEDRAL>
4.38942

>  <SCORE.SYSTEM.POLAR>
-8.24637

>  <SCORE.SYSTEM.VDW>
-4.29711

>  <SCORE.SYSTEM.norm>
-1.1163

>  <SCORE.heavy>
27

>  <SCORE.norm>
-2.24318

$$$$

  rDOCK(R)          3D
libRbt.so/2013.1/901 2013/11/27
 28 30  0  0  0  0  0  0  0  0999 V2000
   38.4528   14.0097   85.4898 C   0  0  0  0  0  0
   39.4837   13.2451   84.7563 C   0  0  0  0  0  0
   39.3907   11.9883   84.7417 O   0  0  0  0  0  0
   40.6237   13.8873   84.0579 C   0  0  0  0  0  0
   41.0992   13.3523   82.8547 C   0  0  0  0  0  0
   42.2047   13.9165   82.1772 C   0  0  0  0  0  0
   42.7898   15.1097   82.6990 C   0  0  0  0  0  0
   42.3361   15.5932   83.9456 C   0  0  0  0  0  0
   41.2743   14.9911   84.6135 C   0  0  0  0  0  0
   43.9482   15.8354   81.9978 C   0  0  0  0  0  0
   43.6833   17.3607   81.9379 C   0  0  0  0  0  0
   45.2510   15.5902   82.7929 C   0  0  0  0  0  0
   44.1195   15.3527   80.5361 C   0  0  0  0  0  0
   44.0521   13.8351   80.4183 C   0  0  0  0  0  0
   42.6800   13.2718   80.8655 C   0  0  0  0  0  0
   42.8590   11.7426   81.0386 C   0  0  0  0  0  0
   41.6211   13.5253   79.7680 C   0  0  0  0  0  0
   38.4412   15.3502   85.5376 C   0  0  0  0  0  0
   37.4171   16.1434   86.2611 C   0  0  0  0  0  0
   36.3570   15.5491   86.9722 C   0  0  0  0  0  0
   35.4115   16.3412   87.6311 C   0  0  0  0  0  0
   35.5010   17.7433   87.5925 C   0  0  0  0  0  0
   34.5033   18.5962   88.2836 C   0  0  0  0  0  0
   33.5396   18.0614   88.8940 O   0  0  0  0  0  0
   34.5889   19.9880   88.2669 O   0  0  0  0  0  0
   36.5434   18.3348   86.8592 C   0  0  0  0  0  0
   37.4883   17.5435   86.2009 C   0  0  0  0  0  0
   35.3465   20.4826   87.8142 H   0  0  0  0  0  0
  1  2  1  0  0  0
  2  3  2  0  0  0
  2  4  1  0  0  0
  4  5  2  0  0  0
  5  6  1  0  0  0
  6  7  2  0  0  0
  7  8  1  0  0  0
  8  9  2  0  0  0
  7 10  1  0  0  0
 10 11  1  0  0  0
 10 12  1  0  0  0
 10 13  1  0  0  0
 13 14  1  0  0  0
 14 15  1  0  0  0
 15 16  1  0  0  0
 15 17  1  0  0  0
  1 18  2  0  0  0
 18 19  1  0  0  0
 19 20  2  0  0  0
 20 21  1  0  0  0
 21 22  2  0  0  0
 22 23  1  0  0  0
 23 24  2  0  0  0
 23 25  1  0  0  0
 22 26  1  0  0  0
 26 27  2  0  0  0
  9  4  1  0  0  0
 27 19  1  0  0  0
 15  6  1  0  0  0
 25 28  1  0  0  0
M  END
>  <CHROM.0>
-143.62213332,-55.95160309,179.66870116,-174.55867590,179.17817682,-68.74550762
-52.03657796,178.75357370,71.38287463,62.10194922,178.28621277,63.81572807
64.53507024

>  <CHROM.1>
-178.24157867,-144.12080956,0.16722766,-1.53959515,-2.16249211,39.82825458
15.44122476,84.33685562,2.67045941,0.58435350,0.22841790

>  <RI>
3.63097e+07

>  <Rbt.Current_Directory>
/extra/banzai2/j5wagner/CELPP/2016_10_17_rdock_implementation/normal_run/tutorialVideo/tutorial_rdock_implementation/full_week_run/4-docking/1fcz/hiResHolo_1fcy_docking

>  <Rbt.Executable>
rbdock ($Id: //depot/dev/client3/rdock/2013.1/src/exe/rbdock.cxx#4 $)

>  <Rbt.Library>
libRbt.so (2013.1, Build901 2013/11/27)

>  <Rbt.Parameter_File>
/home/j5wagner/env_00/source/rDock/rDock_2013.1_src//data/scripts/dock.prm

>  <Rbt.Receptor>
/extra/banzai2/j5wagner/CELPP/2016_10_17_rdock_implementation/normal_run/tutorialVideo/tutorial_rdock_implementation/full_week_run/4-docking/1fcz/hiResHolo_1fcy_tech_prep/rDockGridGenInput.prm

>  <SCORE>
-60.4792

>  <SCORE.INTER>
-29.6838

>  <SCORE.INTER.CONST>
1

>  <SCORE.INTER.POLAR>
-1.74258

>  <SCORE.INTER.REPUL>
0

>  <SCORE.INTER.ROT>
4

>  <SCORE.INTER.VDW>
-33.1591

>  <SCORE.INTER.norm>
-1.0994

>  <SCORE.INTRA>
-2.40328

>  <SCORE.INTRA.DIHEDRAL>
-5.92261

>  <SCORE.INTRA.DIHEDRAL.0>
10.7811

>  <SCORE.INTRA.POLAR>
0

>  <SCORE.INTRA.POLAR.0>
0

>  <SCORE.INTRA.REPUL>
0

>  <SCORE.INTRA.REPUL.0>
0

>  <SCORE.INTRA.VDW>
0.558026

>  <SCORE.INTRA.VDW.0>
-0.812999

>  <SCORE.INTRA.norm>
-0.0890103

>  <SCORE.RESTR>
0

>  <SCORE.RESTR.CAVITY>
0

>  <SCORE.RESTR.norm>
0

>  <SCORE.SYSTEM>
-28.3921

>  <SCORE.SYSTEM.CONST>
0

>  <SCORE.SYSTEM.DIHEDRAL>
3.83593

>  <SCORE.SYSTEM.POLAR>
-7.85798

>  <SCORE.SYSTEM.VDW>
-3.59296

>  <SCORE.SYSTEM.norm>
-1.05156

>  <SCORE.heavy>
27

>  <SCORE.norm>
-2.23997

$$$$

  rDOCK(R)          3D
libRbt.so/2013.1/901 2013/11/27
 28 30  0  0  0  0  0  0  0  0999 V2000
   39.0331   14.8859   85.2685 C   0  0  0  0  0  0
   39.9961   13.9069   84.7214 C   0  0  0  0  0  0
   39.7838   12.6833   84.9364 O   0  0  0  0  0  0
   41.2016   14.3004   83.9520 C   0  0  0  0  0  0
   41.5661   13.5834   82.8063 C   0  0  0  0  0  0
   42.7266   13.9073   82.0660 C   0  0  0  0  0  0
   43.4916   15.0471   82.4584 C   0  0  0  0  0  0
   43.1419   15.7147   83.6525 C   0  0  0  0  0  0
   42.0190   15.3459   84.3867 C   0  0  0  0  0  0
   44.7273   15.5199   81.6776 C   0  0  0  0  0  0
   44.6870   17.0538   81.4639 C   0  0  0  0  0  0
   45.9981   15.1657   82.4834 C   0  0  0  0  0  0
   44.7928   14.8733   80.2717 C   0  0  0  0  0  0
   44.5016   13.3782   80.3103 C   0  0  0  0  0  0
   43.0725   13.0715   80.8235 C   0  0  0  0  0  0
   43.0299   11.5577   81.1508 C   0  0  0  0  0  0
   42.0373   13.3675   79.7141 C   0  0  0  0  0  0
   38.1052   14.5586   86.1802 C   0  0  0  0  0  0
   37.1298   15.5205   86.7502 C   0  0  0  0  0  0
   36.1674   15.1499   87.7088 C   0  0  0  0  0  0
   35.2639   16.0926   88.2093 C   0  0  0  0  0  0
   35.2985   17.4246   87.7623 C   0  0  0  0  0  0
   34.3440   18.4345   88.2815 C   0  0  0  0  0  0
   33.3382   18.0620   88.9425 O   0  0  0  0  0  0
   34.5167   19.7981   88.0464 O   0  0  0  0  0  0
   36.2412   17.7860   86.7851 C   0  0  0  0  0  0
   37.1443   16.8443   86.2850 C   0  0  0  0  0  0
   35.2667   20.1622   87.4734 H   0  0  0  0  0  0
  1  2  1  0  0  0
  2  3  2  0  0  0
  2  4  1  0  0  0
  4  5  2  0  0  0
  5  6  1  0  0  0
  6  7  2  0  0  0
  7  8  1  0  0  0
  8  9  2  0  0  0
  7 10  1  0  0  0
 10 11  1  0  0  0
 10 12  1  0  0  0
 10 13  1  0  0  0
 13 14  1  0  0  0
 14 15  1  0  0  0
 15 16  1  0  0  0
 15 17  1  0  0  0
  1 18  2  0  0  0
 18 19  1  0  0  0
 19 20  2  0  0  0
 20 21  1  0  0  0
 21 22  2  0  0  0
 22 23  1  0  0  0
 23 24  2  0  0  0
 23 25  1  0  0  0
 22 26  1  0  0  0
 26 27  2  0  0  0
  9  4  1  0  0  0
 27 19  1  0  0  0
 15  6  1  0  0  0
 25 28  1  0  0  0
M  END
>  <CHROM.0>
-32.61170282,-55.53035588,71.50717090,179.70635156,58.68509978,-70.68532486
-53.33470018,-179.05326514,63.15821777,59.75042439,-59.22048205,64.20051996
-173.84334808

>  <CHROM.1>
13.00388723,-137.94835516,-179.86731818,-12.98600947,3.35147946,40.11363352
15.32181190,84.32815358,2.72262194,0.56690514,0.23084775

>  <RI>
3.63097e+07

>  <Rbt.Current_Directory>
/extra/banzai2/j5wagner/CELPP/2016_10_17_rdock_implementation/normal_run/tutorialVideo/tutorial_rdock_implementation/full_week_run/4-docking/1fcz/hiResHolo_1fcy_docking

>  <Rbt.Executable>
rbdock ($Id: //depot/dev/client3/rdock/2013.1/src/exe/rbdock.cxx#4 $)

>  <Rbt.Library>
libRbt.so (2013.1, Build901 2013/11/27)

>  <Rbt.Parameter_File>
/home/j5wagner/env_00/source/rDock/rDock_2013.1_src//data/scripts/dock.prm

>  <Rbt.Receptor>
/extra/banzai2/j5wagner/CELPP/2016_10_17_rdock_implementation/normal_run/tutorialVideo/tutorial_rdock_implementation/full_week_run/4-docking/1fcz/hiResHolo_1fcy_tech_prep/rDockGridGenInput.prm

>  <SCORE>
-60.2875

>  <SCORE.INTER>
-29.059

>  <SCORE.INTER.CONST>
1

>  <SCORE.INTER.POLAR>
-1.78197

>  <SCORE.INTER.REPUL>
0

>  <SCORE.INTER.ROT>
4

>  <SCORE.INTER.VDW>
-32.4002

>  <SCORE.INTER.norm>
-1.07626

>  <SCORE.INTRA>
-0.950664

>  <SCORE.INTRA.DIHEDRAL>
-3.22772

>  <SCORE.INTRA.DIHEDRAL.0>
10.7811

>  <SCORE.INTRA.POLAR>
0

>  <SCORE.INTRA.POLAR.0>
0

>  <SCORE.INTRA.REPUL>
0

>  <SCORE.INTRA.REPUL.0>
0

>  <SCORE.INTRA.VDW>
0.663193

>  <SCORE.INTRA.VDW.0>
-0.812999

>  <SCORE.INTRA.norm>
-0.0352098

>  <SCORE.RESTR>
0

>  <SCORE.RESTR.CAVITY>
0

>  <SCORE.RESTR.norm>
0

>  <SCORE.SYSTEM>
-30.2778

>  <SCORE.SYSTEM.CONST>
0

>  <SCORE.SYSTEM.DIHEDRAL>
3.02873

>  <SCORE.SYSTEM.POLAR>
-8.47591

>  <SCORE.SYSTEM.VDW>
-2.97412

>  <SCORE.SYSTEM.norm>
-1.1214

>  <SCORE.heavy>
27

>  <SCORE.norm>
-2.23287

$$$$

  rDOCK(R)          3D
libRbt.so/2013.1/901 2013/11/27
 28 30  0  0  0  0  0  0  0  0999 V2000
   38.7023   13.8731   85.3070 C   0  0  0  0  0  0
   39.7361   13.1392   84.5467 C   0  0  0  0  0  0
   39.6456   11.8837   84.4835 O   0  0  0  0  0  0
   40.8762   13.8099   83.8757 C   0  0  0  0  0  0
   41.3920   13.2888   82.6832 C   0  0  0  0  0  0
   42.4990   13.8807   82.0322 C   0  0  0  0  0  0
   43.0431   15.0865   82.5691 C   0  0  0  0  0  0
   42.5491   15.5566   83.8055 C   0  0  0  0  0  0
   41.4870   14.9279   84.4478 C   0  0  0  0  0  0
   44.1995   15.8413   81.8958 C   0  0  0  0  0  0
   43.8995   17.3599   81.8319 C   0  0  0  0  0  0
   45.4892   15.6259   82.7205 C   0  0  0  0  0  0
   44.4161   15.3657   80.4378 C   0  0  0  0  0  0
   44.3879   13.8470   80.3164 C   0  0  0  0  0  0
   43.0198   13.2502   80.7310 C   0  0  0  0  0  0
   43.2315   11.7253   80.9060 C   0  0  0  0  0  0
   41.9808   13.4803   79.6095 C   0  0  0  0  0  0
   38.6180   15.2118   85.3102 C   0  0  0  0  0  0
   37.5889   15.9743   86.0592 C   0  0  0  0  0  0
   37.4224   17.3656   85.9210 C   0  0  0  0  0  0
   36.4428   18.0402   86.6564 C   0  0  0  0  0  0
   35.6100   17.3423   87.5479 C   0  0  0  0  0  0
   34.5692   18.0451   88.3372 C   0  0  0  0  0  0
   34.1291   19.1573   87.9412 O   0  0  0  0  0  0
   34.0663   17.5168   89.5258 O   0  0  0  0  0  0
   35.7963   15.9585   87.7053 C   0  0  0  0  0  0
   36.7750   15.2842   86.9705 C   0  0  0  0  0  0
   33.3781   17.9991   90.0890 H   0  0  0  0  0  0
  1  2  1  0  0  0
  2  3  2  0  0  0
  2  4  1  0  0  0
  4  5  2  0  0  0
  5  6  1  0  0  0
  6  7  2  0  0  0
  7  8  1  0  0  0
  8  9  2  0  0  0
  7 10  1  0  0  0
 10 11  1  0  0  0
 10 12  1  0  0  0
 10 13  1  0  0  0
 13 14  1  0  0  0
 14 15  1  0  0  0
 15 16  1  0  0  0
 15 17  1  0  0  0
  1 18  2  0  0  0
 18 19  1  0  0  0
 19 20  2  0  0  0
 20 21  1  0  0  0
 21 22  2  0  0  0
 22 23  1  0  0  0
 23 24  2  0  0  0
 23 25  1  0  0  0
 22 26  1  0  0  0
 26 27  2  0  0  0
  9  4  1  0  0  0
 27 19  1  0  0  0
 15  6  1  0  0  0
 25 28  1  0  0  0
M  END
>  <CHROM.0>
-27.83158170,-56.61503978,68.48250914,65.10076322,-59.76911163,-69.88995528
-51.76034719,-177.86434587,70.06490966,59.91259100,68.74905468,62.35022426
-54.49676692

>  <CHROM.1>
-172.19841906,-146.86440215,-172.22784103,22.18488066,178.00565679,40.04058465
15.26714831,84.23513083,2.72159342,0.59616968,0.22698727

>  <RI>
3.63097e+07

>  <Rbt.Current_Directory>
/extra/banzai2/j5wagner/CELPP/2016_10_17_rdock_implementation/normal_run/tutorialVideo/tutorial_rdock_implementation/full_week_run/4-docking/1fcz/hiResHolo_1fcy_docking

>  <Rbt.Executable>
rbdock ($Id: //depot/dev/client3/rdock/2013.1/src/exe/rbdock.cxx#4 $)

>  <Rbt.Library>
libRbt.so (2013.1, Build901 2013/11/27)

>  <Rbt.Parameter_File>
/home/j5wagner/env_00/source/rDock/rDock_2013.1_src//data/scripts/dock.prm

>  <Rbt.Receptor>
/extra/banzai2/j5wagner/CELPP/2016_10_17_rdock_implementation/normal_run/tutorialVideo/tutorial_rdock_implementation/full_week_run/4-docking/1fcz/hiResHolo_1fcy_tech_prep/rDockGridGenInput.prm

>  <SCORE>
-60.0839

>  <SCORE.INTER>
-28.9426

>  <SCORE.INTER.CONST>
1

>  <SCORE.INTER.POLAR>
-1.66943

>  <SCORE.INTER.REPUL>
0.0110463

>  <SCORE.INTER.ROT>
4

>  <SCORE.INTER.VDW>
-32.7218

>  <SCORE.INTER.norm>
-1.07195

>  <SCORE.INTRA>
-1.36287

>  <SCORE.INTRA.DIHEDRAL>
-4.24093

>  <SCORE.INTRA.DIHEDRAL.0>
10.7811

>  <SCORE.INTRA.POLAR>
0

>  <SCORE.INTRA.POLAR.0>
0

>  <SCORE.INTRA.REPUL>
0

>  <SCORE.INTRA.REPUL.0>
0

>  <SCORE.INTRA.VDW>
0.757593

>  <SCORE.INTRA.VDW.0>
-0.812999

>  <SCORE.INTRA.norm>
-0.0504766

>  <SCORE.RESTR>
0

>  <SCORE.RESTR.CAVITY>
0

>  <SCORE.RESTR.norm>
0

>  <SCORE.SYSTEM>
-29.7784

>  <SCORE.SYSTEM.CONST>
0

>  <SCORE.SYSTEM.DIHEDRAL>
4.03282

>  <SCORE.SYSTEM.POLAR>
-8.24461

>  <SCORE.SYSTEM.VDW>
-3.76319

>  <SCORE.SYSTEM.norm>
-1.10291

>  <SCORE.heavy>
27

>  <SCORE.norm>
-2.22533

$$$$

  rDOCK(R)          3D
libRbt.so/2013.1/901 2013/11/27
 28 30  0  0  0  0  0  0  0  0999 V2000
   39.1279   14.8678   85.3445 C   0  0  0  0  0  0
   40.0817   13.8798   84.7973 C   0  0  0  0  0  0
   39.8465   12.6573   84.9942 O   0  0  0  0  0  0
   41.3033   14.2627   84.0484 C   0  0  0  0  0  0
   41.6319   13.6013   82.8592 C   0  0  0  0  0  0
   42.8054   13.9153   82.1352 C   0  0  0  0  0  0
   43.6240   14.9914   82.5937 C   0  0  0  0  0  0
   43.3080   15.5998   83.8281 C   0  0  0  0  0  0
   42.1700   15.2398   84.5431 C   0  0  0  0  0  0
   44.8796   15.4526   81.8381 C   0  0  0  0  0  0
   44.9116   16.9970   81.7194 C   0  0  0  0  0  0
   46.1333   14.9899   82.6151 C   0  0  0  0  0  0
   44.9124   14.8917   80.3948 C   0  0  0  0  0  0
   44.5509   13.4124   80.3426 C   0  0  0  0  0  0
   43.1096   13.1423   80.8422 C   0  0  0  0  0  0
   42.9958   11.6149   81.0758 C   0  0  0  0  0  0
   42.0880   13.5546   79.7575 C   0  0  0  0  0  0
   38.1239   14.5283   86.1666 C   0  0  0  0  0  0
   37.1554   15.4983   86.7345 C   0  0  0  0  0  0
   36.1730   15.1310   87.6740 C   0  0  0  0  0  0
   35.2771   16.0815   88.1732 C   0  0  0  0  0  0
   35.3395   17.4184   87.7440 C   0  0  0  0  0  0
   34.3934   18.4367   88.2621 C   0  0  0  0  0  0
   33.3788   18.0727   88.9144 O   0  0  0  0  0  0
   34.5836   19.7994   88.0352 O   0  0  0  0  0  0
   36.3023   17.7771   86.7856 C   0  0  0  0  0  0
   37.1978   16.8274   86.2868 C   0  0  0  0  0  0
   35.3292   20.1565   87.4521 H   0  0  0  0  0  0
  1  2  1  0  0  0
  2  3  2  0  0  0
  2  4  1  0  0  0
  4  5  2  0  0  0
  5  6  1  0  0  0
  6  7  2  0  0  0
  7  8  1  0  0  0
  8  9  2  0  0  0
  7 10  1  0  0  0
 10 11  1  0  0  0
 10 12  1  0  0  0
 10 13  1  0  0  0
 13 14  1  0  0  0
 14 15  1  0  0  0
 15 16  1  0  0  0
 15 17  1  0  0  0
  1 18  2  0  0  0
 18 19  1  0  0  0
 19 20  2  0  0  0
 20 21  1  0  0  0
 21 22  2  0  0  0
 22 23  1  0  0  0
 23 24  2  0  0  0
 23 25  1  0  0  0
 22 26  1  0  0  0
 26 27  2  0  0  0
  9  4  1  0  0  0
 27 19  1  0  0  0
 15  6  1  0  0  0
 25 28  1  0  0  0
M  END
>  <CHROM.0>
-31.83184961,-56.42012933,68.31330539,-61.31433492,178.28209090,166.49777400
-54.72214841,177.40043334,69.42562660,61.85991562,-64.36625158,60.44859418
-179.96878238

>  <CHROM.1>
8.14014611,-134.50904213,-175.07762702,-12.30107373,4.77076007,40.18940719
15.30819225,84.37993895,2.70809284,0.54129301,0.26411367

>  <RI>
3.63097e+07

>  <Rbt.Current_Directory>
/extra/banzai2/j5wagner/CELPP/2016_10_17_rdock_implementation/normal_run/tutorialVideo/tutorial_rdock_implementation/full_week_run/4-docking/1fcz/hiResHolo_1fcy_docking

>  <Rbt.Executable>
rbdock ($Id: //depot/dev/client3/rdock/2013.1/src/exe/rbdock.cxx#4 $)

>  <Rbt.Library>
libRbt.so (2013.1, Build901 2013/11/27)

>  <Rbt.Parameter_File>
/home/j5wagner/env_00/source/rDock/rDock_2013.1_src//data/scripts/dock.prm

>  <Rbt.Receptor>
/extra/banzai2/j5wagner/CELPP/2016_10_17_rdock_implementation/normal_run/tutorialVideo/tutorial_rdock_implementation/full_week_run/4-docking/1fcz/hiResHolo_1fcy_tech_prep/rDockGridGenInput.prm

>  <SCORE>
-60.0683

>  <SCORE.INTER>
-29.6152

>  <SCORE.INTER.CONST>
1

>  <SCORE.INTER.POLAR>
-1.78608

>  <SCORE.INTER.REPUL>
0

>  <SCORE.INTER.ROT>
4

>  <SCORE.INTER.VDW>
-32.9425

>  <SCORE.INTER.norm>
-1.09686

>  <SCORE.INTRA>
-0.705223

>  <SCORE.INTRA.DIHEDRAL>
-2.67189

>  <SCORE.INTRA.DIHEDRAL.0>
10.7811

>  <SCORE.INTRA.POLAR>
0

>  <SCORE.INTRA.POLAR.0>
0

>  <SCORE.INTRA.REPUL>
0

>  <SCORE.INTRA.REPUL.0>
0

>  <SCORE.INTRA.VDW>
0.630721

>  <SCORE.INTRA.VDW.0>
-0.812999

>  <SCORE.INTRA.norm>
-0.0261194

>  <SCORE.RESTR>
0

>  <SCORE.RESTR.CAVITY>
0

>  <SCORE.RESTR.norm>
0

>  <SCORE.SYSTEM>
-29.7479

>  <SCORE.SYSTEM.CONST>
0

>  <SCORE.SYSTEM.DIHEDRAL>
3.19096

>  <SCORE.SYSTEM.POLAR>
-8.2512

>  <SCORE.SYSTEM.VDW>
-3.28929

>  <SCORE.SYSTEM.norm>
-1.10177

>  <SCORE.heavy>
27

>  <SCORE.norm>
-2.22475

$$$$

  rDOCK(R)          3D
libRbt.so/2013.1/901 2013/11/27
 28 30  0  0  0  0  0  0  0  0999 V2000
   38.5943   13.8063   85.7821 C   0  0  0  0  0  0
   39.4820   13.1213   84.8188 C   0  0  0  0  0  0
   39.2992   11.8908   84.6162 O   0  0  0  0  0  0
   40.5814   13.8101   84.0999 C   0  0  0  0  0  0
   41.0893   13.2688   82.9130 C   0  0  0  0  0  0
   42.1590   13.8783   82.2174 C   0  0  0  0  0  0
   42.6702   15.1201   82.7023 C   0  0  0  0  0  0
   42.1870   15.6127   83.9341 C   0  0  0  0  0  0
   41.1634   14.9676   84.6211 C   0  0  0  0  0  0
   43.7828   15.8933   81.9780 C   0  0  0  0  0  0
   43.4258   17.3971   81.8723 C   0  0  0  0  0  0
   45.0976   15.7519   82.7787 C   0  0  0  0  0  0
   43.9841   15.3779   80.5314 C   0  0  0  0  0  0
   44.0092   13.8560   80.4597 C   0  0  0  0  0  0
   42.6735   13.2243   80.9253 C   0  0  0  0  0  0
   42.9450   11.7147   81.1444 C   0  0  0  0  0  0
   41.6020   13.3796   79.8218 C   0  0  0  0  0  0
   38.3540   15.1252   85.7355 C   0  0  0  0  0  0
   37.4645   15.8382   86.6852 C   0  0  0  0  0  0
   36.9988   15.2519   87.8777 C   0  0  0  0  0  0
   36.1545   15.9629   88.7362 C   0  0  0  0  0  0
   35.7537   17.2730   88.4225 C   0  0  0  0  0  0
   34.8555   18.0379   89.3217 C   0  0  0  0  0  0
   34.1363   18.9589   88.8509 O   0  0  0  0  0  0
   34.7913   17.7787   90.6904 O   0  0  0  0  0  0
   36.1967   17.8461   87.2185 C   0  0  0  0  0  0
   37.0406   17.1358   86.3606 C   0  0  0  0  0  0
   34.1912   18.2994   91.3167 H   0  0  0  0  0  0
  1  2  1  0  0  0
  2  3  2  0  0  0
  2  4  1  0  0  0
  4  5  2  0  0  0
  5  6  1  0  0  0
  6  7  2  0  0  0
  7  8  1  0  0  0
  8  9  2  0  0  0
  7 10  1  0  0  0
 10 11  1  0  0  0
 10 12  1  0  0  0
 10 13  1  0  0  0
 13 14  1  0  0  0
 14 15  1  0  0  0
 15 16  1  0  0  0
 15 17  1  0  0  0
  1 18  2  0  0  0
 18 19  1  0  0  0
 19 20  2  0  0  0
 20 21  1  0  0  0
 21 22  2  0  0  0
 22 23  1  0  0  0
 23 24  2  0  0  0
 23 25  1  0  0  0
 22 26  1  0  0  0
 26 27  2  0  0  0
  9  4  1  0  0  0
 27 19  1  0  0  0
 15  6  1  0  0  0
 25 28  1  0  0  0
M  END
>  <CHROM.0>
93.15988170,-56.49699738,67.78306604,-53.29287390,-58.72282764,-69.39568944
-52.85392220,60.88750299,68.90375317,61.53246237,-65.03966728,65.09389293
61.28210631

>  <CHROM.1>
-155.22329971,-158.81618174,12.92365473,-154.55267944,179.28962934,39.85753978
15.24931792,84.64345810,2.67613224,0.67381865,0.27789881

>  <RI>
3.63097e+07

>  <Rbt.Current_Directory>
/extra/banzai2/j5wagner/CELPP/2016_10_17_rdock_implementation/normal_run/tutorialVideo/tutorial_rdock_implementation/full_week_run/4-docking/1fcz/hiResHolo_1fcy_docking

>  <Rbt.Executable>
rbdock ($Id: //depot/dev/client3/rdock/2013.1/src/exe/rbdock.cxx#4 $)

>  <Rbt.Library>
libRbt.so (2013.1, Build901 2013/11/27)

>  <Rbt.Parameter_File>
/home/j5wagner/env_00/source/rDock/rDock_2013.1_src//data/scripts/dock.prm

>  <Rbt.Receptor>
/extra/banzai2/j5wagner/CELPP/2016_10_17_rdock_implementation/normal_run/tutorialVideo/tutorial_rdock_implementation/full_week_run/4-docking/1fcz/hiResHolo_1fcy_tech_prep/rDockGridGenInput.prm

>  <SCORE>
-59.282

>  <SCORE.INTER>
-28.1786

>  <SCORE.INTER.CONST>
1

>  <SCORE.INTER.POLAR>
-1.64208

>  <SCORE.INTER.REPUL>
0

>  <SCORE.INTER.ROT>
4

>  <SCORE.INTER.VDW>
-31.9955

>  <SCORE.INTER.norm>
-1.04365

>  <SCORE.INTRA>
-1.30852

>  <SCORE.INTRA.DIHEDRAL>
-3.69844

>  <SCORE.INTRA.DIHEDRAL.0>
10.7811

>  <SCORE.INTRA.POLAR>
0

>  <SCORE.INTRA.POLAR.0>
0

>  <SCORE.INTRA.REPUL>
0

>  <SCORE.INTRA.REPUL.0>
0

>  <SCORE.INTRA.VDW>
0.540705

>  <SCORE.INTRA.VDW.0>
-0.812999

>  <SCORE.INTRA.norm>
-0.0484636

>  <SCORE.RESTR>
0

>  <SCORE.RESTR.CAVITY>
0

>  <SCORE.RESTR.norm>
0

>  <SCORE.SYSTEM>
-29.7949

>  <SCORE.SYSTEM.CONST>
0

>  <SCORE.SYSTEM.DIHEDRAL>
3.6936

>  <SCORE.SYSTEM.POLAR>
-8.12836

>  <SCORE.SYSTEM.VDW>
-4.00525

>  <SCORE.SYSTEM.norm>
-1.10351

>  <SCORE.heavy>
27

>  <SCORE.norm>
-2.19563

$$$$

  rDOCK(R)          3D
libRbt.so/2013.1/901 2013/11/27
 28 30  0  0  0  0  0  0  0  0999 V2000
   39.1754   14.7902   84.9657 C   0  0  0  0  0  0
   40.0536   13.8520   84.2350 C   0  0  0  0  0  0
   39.7117   12.6400   84.1818 O   0  0  0  0  0  0
   41.3187   14.2687   83.5827 C   0  0  0  0  0  0
   41.8224   13.5379   82.5002 C   0  0  0  0  0  0
   43.0420   13.8843   81.8740 C   0  0  0  0  0  0
   43.7254   15.0590   82.3116 C   0  0  0  0  0  0
   43.2331   15.7421   83.4450 C   0  0  0  0  0  0
   42.0529   15.3521   84.0702 C   0  0  0  0  0  0
   45.0193   15.5557   81.6488 C   0  0  0  0  0  0
   44.9520   17.0819   81.3906 C   0  0  0  0  0  0
   46.2109   15.2651   82.5897 C   0  0  0  0  0  0
   45.2503   14.8788   80.2750 C   0  0  0  0  0  0
   45.0049   13.3757   80.3242 C   0  0  0  0  0  0
   43.5410   13.0318   80.6966 C   0  0  0  0  0  0
   43.5135   11.5256   81.0587 C   0  0  0  0  0  0
   42.6168   13.2653   79.4794 C   0  0  0  0  0  0
   38.2696   14.3828   85.8673 C   0  0  0  0  0  0
   37.3791   15.3014   86.6188 C   0  0  0  0  0  0
   37.0608   16.5948   86.1624 C   0  0  0  0  0  0
   36.2229   17.4263   86.9121 C   0  0  0  0  0  0
   35.6868   16.9870   88.1348 C   0  0  0  0  0  0
   34.7997   17.8594   88.9425 C   0  0  0  0  0  0
   34.2005   18.8218   88.3928 O   0  0  0  0  0  0
   34.6164   17.6566   90.3099 O   0  0  0  0  0  0
   36.0282   15.7067   88.6022 C   0  0  0  0  0  0
   36.8653   14.8756   87.8531 C   0  0  0  0  0  0
   33.9184   18.1549   90.8466 H   0  0  0  0  0  0
  1  2  1  0  0  0
  2  3  2  0  0  0
  2  4  1  0  0  0
  4  5  2  0  0  0
  5  6  1  0  0  0
  6  7  2  0  0  0
  7  8  1  0  0  0
  8  9  2  0  0  0
  7 10  1  0  0  0
 10 11  1  0  0  0
 10 12  1  0  0  0
 10 13  1  0  0  0
 13 14  1  0  0  0
 14 15  1  0  0  0
 15 16  1  0  0  0
 15 17  1  0  0  0
  1 18  2  0  0  0
 18 19  1  0  0  0
 19 20  2  0  0  0
 20 21  1  0  0  0
 21 22  2  0  0  0
 22 23  1  0  0  0
 23 24  2  0  0  0
 23 25  1  0  0  0
 22 26  1  0  0  0
 26 27  2  0  0  0
  9  4  1  0  0  0
 27 19  1  0  0  0
 15  6  1  0  0  0
 25 28  1  0  0  0
M  END
>  <CHROM.0>
-139.47787204,-57.10700642,69.49828580,-59.25086342,178.30621611,48.92229601
-54.48152470,-165.37092177,69.40503602,56.88578218,-63.37075123,64.25661754
62.42888896

>  <CHROM.1>
19.27824781,-154.39256393,22.47703690,20.88908635,-171.01756715,40.40924593
15.15320061,84.32103861,2.65612785,0.55343803,0.41337916

>  <RI>
3.63097e+07

>  <Rbt.Current_Directory>
/extra/banzai2/j5wagner/CELPP/2016_10_17_rdock_implementation/normal_run/tutorialVideo/tutorial_rdock_implementation/full_week_run/4-docking/1fcz/hiResHolo_1fcy_docking

>  <Rbt.Executable>
rbdock ($Id: //depot/dev/client3/rdock/2013.1/src/exe/rbdock.cxx#4 $)

>  <Rbt.Library>
libRbt.so (2013.1, Build901 2013/11/27)

>  <Rbt.Parameter_File>
/home/j5wagner/env_00/source/rDock/rDock_2013.1_src//data/scripts/dock.prm

>  <Rbt.Receptor>
/extra/banzai2/j5wagner/CELPP/2016_10_17_rdock_implementation/normal_run/tutorialVideo/tutorial_rdock_implementation/full_week_run/4-docking/1fcz/hiResHolo_1fcy_tech_prep/rDockGridGenInput.prm

>  <SCORE>
-59.2705

>  <SCORE.INTER>
-29.5687

>  <SCORE.INTER.CONST>
1

>  <SCORE.INTER.POLAR>
-2.01093

>  <SCORE.INTER.REPUL>
0

>  <SCORE.INTER.ROT>
4

>  <SCORE.INTER.VDW>
-32.1315

>  <SCORE.INTER.norm>
-1.09514

>  <SCORE.INTRA>
-0.802644

>  <SCORE.INTRA.DIHEDRAL>
-2.53802

>  <SCORE.INTRA.DIHEDRAL.0>
10.7811

>  <SCORE.INTRA.POLAR>
0

>  <SCORE.INTRA.POLAR.0>
0

>  <SCORE.INTRA.REPUL>
0

>  <SCORE.INTRA.REPUL.0>
0

>  <SCORE.INTRA.VDW>
0.466366

>  <SCORE.INTRA.VDW.0>
-0.812999

>  <SCORE.INTRA.norm>
-0.0297276

>  <SCORE.RESTR>
0

>  <SCORE.RESTR.CAVITY>
0

>  <SCORE.RESTR.norm>
0

>  <SCORE.SYSTEM>
-28.8992

>  <SCORE.SYSTEM.CONST>
0

>  <SCORE.SYSTEM.DIHEDRAL>
5.32222

>  <SCORE.SYSTEM.POLAR>
-7.79052

>  <SCORE.SYSTEM.VDW>
-5.07249

>  <SCORE.SYSTEM.norm>
-1.07034

>  <SCORE.heavy>
27

>  <SCORE.norm>
-2.1952

$$$$

  rDOCK(R)          3D
libRbt.so/2013.1/901 2013/11/27
 28 30  0  0  0  0  0  0  0  0999 V2000
   38.7538   13.8437   85.4776 C   0  0  0  0  0  0
   39.7121   13.1049   84.6283 C   0  0  0  0  0  0
   39.5653   11.8582   84.5159 O   0  0  0  0  0  0
   40.8407   13.7598   83.9231 C   0  0  0  0  0  0
   41.3152   13.2299   82.7174 C   0  0  0  0  0  0
   42.4103   13.8064   82.0333 C   0  0  0  0  0  0
   42.9848   15.0064   82.5515 C   0  0  0  0  0  0
   42.5328   15.4851   83.8006 C   0  0  0  0  0  0
   41.4819   14.8711   84.4747 C   0  0  0  0  0  0
   44.1308   15.7450   81.8434 C   0  0  0  0  0  0
   43.8482   17.2672   81.7846 C   0  0  0  0  0  0
   45.4409   15.5150   82.6310 C   0  0  0  0  0  0
   44.2991   15.2639   80.3808 C   0  0  0  0  0  0
   44.2483   13.7455   80.2638 C   0  0  0  0  0  0
   42.8853   13.1669   80.7191 C   0  0  0  0  0  0
   43.0827   11.6398   80.8915 C   0  0  0  0  0  0
   41.8173   13.4079   79.6276 C   0  0  0  0  0  0
   38.5870   15.1721   85.3960 C   0  0  0  0  0  0
   37.6299   15.9387   86.2313 C   0  0  0  0  0  0
   37.2966   17.2813   85.9686 C   0  0  0  0  0  0
   36.3949   17.9633   86.7915 C   0  0  0  0  0  0
   35.8083   17.3221   87.8960 C   0  0  0  0  0  0
   34.8530   18.0342   88.7797 C   0  0  0  0  0  0
   34.1747   18.9928   88.3233 O   0  0  0  0  0  0
   34.6898   17.6835   90.1195 O   0  0  0  0  0  0
   36.1635   15.9912   88.1730 C   0  0  0  0  0  0
   37.0644   15.3094   87.3508 C   0  0  0  0  0  0
   34.0305   18.1498   90.7290 H   0  0  0  0  0  0
  1  2  1  0  0  0
  2  3  2  0  0  0
  2  4  1  0  0  0
  4  5  2  0  0  0
  5  6  1  0  0  0
  6  7  2  0  0  0
  7  8  1  0  0  0
  8  9  2  0  0  0
  7 10  1  0  0  0
 10 11  1  0  0  0
 10 12  1  0  0  0
 10 13  1  0  0  0
 13 14  1  0  0  0
 14 15  1  0  0  0
 15 16  1  0  0  0
 15 17  1  0  0  0
  1 18  2  0  0  0
 18 19  1  0  0  0
 19 20  2  0  0  0
 20 21  1  0  0  0
 21 22  2  0  0  0
 22 23  1  0  0  0
 23 24  2  0  0  0
 23 25  1  0  0  0
 22 26  1  0  0  0
 26 27  2  0  0  0
  9  4  1  0  0  0
 27 19  1  0  0  0
 15  6  1  0  0  0
 25 28  1  0  0  0
M  END
>  <CHROM.0>
-139.67656356,-56.93379484,-55.17077752,64.46588015,-64.34078480,56.93476159
-56.16388083,-167.64289114,69.59870021,59.45528955,-65.51779693,63.56059616
-179.45605214

>  <CHROM.1>
-161.85611893,-150.37021725,-168.23392011,26.59416670,-178.90654960,40.05968517
15.21468594,84.35340287,2.68363677,0.63380015,0.26222088

>  <RI>
3.63097e+07

>  <Rbt.Current_Directory>
/extra/banzai2/j5wagner/CELPP/2016_10_17_rdock_implementation/normal_run/tutorialVideo/tutorial_rdock_implementation/full_week_run/4-docking/1fcz/hiResHolo_1fcy_docking

>  <Rbt.Executable>
rbdock ($Id: //depot/dev/client3/rdock/2013.1/src/exe/rbdock.cxx#4 $)

>  <Rbt.Library>
libRbt.so (2013.1, Build901 2013/11/27)

>  <Rbt.Parameter_File>
/home/j5wagner/env_00/source/rDock/rDock_2013.1_src//data/scripts/dock.prm

>  <Rbt.Receptor>
/extra/banzai2/j5wagner/CELPP/2016_10_17_rdock_implementation/normal_run/tutorialVideo/tutorial_rdock_implementation/full_week_run/4-docking/1fcz/hiResHolo_1fcy_tech_prep/rDockGridGenInput.prm

>  <SCORE>
-58.6607

>  <SCORE.INTER>
-29.7808

>  <SCORE.INTER.CONST>
1

>  <SCORE.INTER.POLAR>
-1.89873

>  <SCORE.INTER.REPUL>
0

>  <SCORE.INTER.ROT>
4

>  <SCORE.INTER.VDW>
-32.7252

>  <SCORE.INTER.norm>
-1.10299

>  <SCORE.INTRA>
-0.858921

>  <SCORE.INTRA.DIHEDRAL>
-2.98073

>  <SCORE.INTRA.DIHEDRAL.0>
10.7811

>  <SCORE.INTRA.POLAR>
0

>  <SCORE.INTRA.POLAR.0>
0

>  <SCORE.INTRA.REPUL>
0

>  <SCORE.INTRA.REPUL.0>
0

>  <SCORE.INTRA.VDW>
0.631442

>  <SCORE.INTRA.VDW.0>
-0.812999

>  <SCORE.INTRA.norm>
-0.0318119

>  <SCORE.RESTR>
0

>  <SCORE.RESTR.CAVITY>
0

>  <SCORE.RESTR.norm>
0

>  <SCORE.SYSTEM>
-28.021

>  <SCORE.SYSTEM.CONST>
0

>  <SCORE.SYSTEM.DIHEDRAL>
4.47452

>  <SCORE.SYSTEM.POLAR>
-7.57936

>  <SCORE.SYSTEM.VDW>
-4.48841

>  <SCORE.SYSTEM.norm>
-1.03781

>  <SCORE.heavy>
27

>  <SCORE.norm>
-2.17262

$$$$

  rDOCK(R)          3D
libRbt.so/2013.1/901 2013/11/27
 28 30  0  0  0  0  0  0  0  0999 V2000
   38.7100   13.9023   85.3350 C   0  0  0  0  0  0
   39.7293   13.1584   84.5650 C   0  0  0  0  0  0
   39.6181   11.9051   84.4913 O   0  0  0  0  0  0
   40.8779   13.8163   83.8959 C   0  0  0  0  0  0
   41.4102   13.2714   82.7213 C   0  0  0  0  0  0
   42.5256   13.8509   82.0735 C   0  0  0  0  0  0
   43.0616   15.0679   82.5930 C   0  0  0  0  0  0
   42.5506   15.5626   83.8127 C   0  0  0  0  0  0
   41.4803   14.9462   84.4533 C   0  0  0  0  0  0
   44.2266   15.8098   81.9202 C   0  0  0  0  0  0
   43.9266   17.3265   81.8213 C   0  0  0  0  0  0
   45.5051   15.6123   82.7664 C   0  0  0  0  0  0
   44.4631   15.3047   80.4752 C   0  0  0  0  0  0
   44.4376   13.7839   80.3844 C   0  0  0  0  0  0
   43.0643   13.1945   80.7925 C   0  0  0  0  0  0
   43.2745   11.6737   81.0014 C   0  0  0  0  0  0
   42.0404   13.4007   79.6527 C   0  0  0  0  0  0
   38.6134   15.2399   85.3070 C   0  0  0  0  0  0
   37.5983   16.0122   86.0650 C   0  0  0  0  0  0
   37.4273   17.4012   85.9099 C   0  0  0  0  0  0
   36.4615   18.0855   86.6545 C   0  0  0  0  0  0
   35.6473   17.3998   87.5722 C   0  0  0  0  0  0
   34.6212   18.1131   88.3715 C   0  0  0  0  0  0
   34.1730   19.2196   87.9688 O   0  0  0  0  0  0
   34.1414   17.6009   89.5765 O   0  0  0  0  0  0
   35.8383   16.0187   87.7460 C   0  0  0  0  0  0
   36.8032   15.3347   87.0019 C   0  0  0  0  0  0
   33.4636   18.0906   90.1461 H   0  0  0  0  0  0
  1  2  1  0  0  0
  2  3  2  0  0  0
  2  4  1  0  0  0
  4  5  2  0  0  0
  5  6  1  0  0  0
  6  7  2  0  0  0
  7  8  1  0  0  0
  8  9  2  0  0  0
  7 10  1  0  0  0
 10 11  1  0  0  0
 10 12  1  0  0  0
 10 13  1  0  0  0
 13 14  1  0  0  0
 14 15  1  0  0  0
 15 16  1  0  0  0
 15 17  1  0  0  0
  1 18  2  0  0  0
 18 19  1  0  0  0
 19 20  2  0  0  0
 20 21  1  0  0  0
 21 22  2  0  0  0
 22 23  1  0  0  0
 23 24  2  0  0  0
 23 25  1  0  0  0
 22 26  1  0  0  0
 26 27  2  0  0  0
  9  4  1  0  0  0
 27 19  1  0  0  0
 15  6  1  0  0  0
 25 28  1  0  0  0
M  END
>  <CHROM.0>
-31.26389174,-56.05885271,-54.54863823,-57.99847487,-61.33604510,49.65556591
-52.07580106,-175.59682891,69.94859887,60.17629116,176.04011150,64.21514648
-59.61993591

>  <CHROM.1>
-169.41367456,-149.01798027,-173.11168927,22.11608361,178.01765102,40.06556870
15.27357666,84.26365356,2.71130900,0.59318589,0.22823746

>  <RI>
3.63097e+07

>  <Rbt.Current_Directory>
/extra/banzai2/j5wagner/CELPP/2016_10_17_rdock_implementation/normal_run/tutorialVideo/tutorial_rdock_implementation/full_week_run/4-docking/1fcz/hiResHolo_1fcy_docking

>  <Rbt.Executable>
rbdock ($Id: //depot/dev/client3/rdock/2013.1/src/exe/rbdock.cxx#4 $)

>  <Rbt.Library>
libRbt.so (2013.1, Build901 2013/11/27)

>  <Rbt.Parameter_File>
/home/j5wagner/env_00/source/rDock/rDock_2013.1_src//data/scripts/dock.prm

>  <Rbt.Receptor>
/extra/banzai2/j5wagner/CELPP/2016_10_17_rdock_implementation/normal_run/tutorialVideo/tutorial_rdock_implementation/full_week_run/4-docking/1fcz/hiResHolo_1fcy_tech_prep/rDockGridGenInput.prm

>  <SCORE>
-58.6594

>  <SCORE.INTER>
-28.7896

>  <SCORE.INTER.CONST>
1

>  <SCORE.INTER.POLAR>
-1.60553

>  <SCORE.INTER.REPUL>
0.00774536

>  <SCORE.INTER.ROT>
4

>  <SCORE.INTER.VDW>
-32.7695

>  <SCORE.INTER.norm>
-1.06628

>  <SCORE.INTRA>
-1.48853

>  <SCORE.INTRA.DIHEDRAL>
-4.57048

>  <SCORE.INTRA.DIHEDRAL.0>
10.7811

>  <SCORE.INTRA.POLAR>
0

>  <SCORE.INTRA.POLAR.0>
0

>  <SCORE.INTRA.REPUL>
0

>  <SCORE.INTRA.REPUL.0>
0

>  <SCORE.INTRA.VDW>
0.796707

>  <SCORE.INTRA.VDW.0>
-0.812999

>  <SCORE.INTRA.norm>
-0.0551308

>  <SCORE.RESTR>
0

>  <SCORE.RESTR.CAVITY>
0

>  <SCORE.RESTR.norm>
0

>  <SCORE.SYSTEM>
-28.3812

>  <SCORE.SYSTEM.CONST>
0

>  <SCORE.SYSTEM.DIHEDRAL>
3.22826

>  <SCORE.SYSTEM.POLAR>
-8.08105

>  <SCORE.SYSTEM.VDW>
-2.5198

>  <SCORE.SYSTEM.norm>
-1.05116

>  <SCORE.heavy>
27

>  <SCORE.norm>
-2.17257

$$$$

  rDOCK(R)          3D
libRbt.so/2013.1/901 2013/11/27
 28 30  0  0  0  0  0  0  0  0999 V2000
   38.4441   14.1092   85.3128 C   0  0  0  0  0  0
   39.4510   13.3197   84.5724 C   0  0  0  0  0  0
   39.3007   12.0695   84.5182 O   0  0  0  0  0  0
   40.6308   13.9288   83.9114 C   0  0  0  0  0  0
   41.1517   13.3582   82.7440 C   0  0  0  0  0  0
   42.2950   13.8903   82.1041 C   0  0  0  0  0  0
   42.8740   15.0874   82.6237 C   0  0  0  0  0  0
   42.3720   15.6073   83.8367 C   0  0  0  0  0  0
   41.2723   15.0364   84.4698 C   0  0  0  0  0  0
   44.0735   15.7797   81.9587 C   0  0  0  0  0  0
   43.8346   17.3067   81.8509 C   0  0  0  0  0  0
   45.3354   15.5356   82.8176 C   0  0  0  0  0  0
   44.3030   15.2594   80.5181 C   0  0  0  0  0  0
   44.2182   13.7404   80.4331 C   0  0  0  0  0  0
   42.8190   13.2075   80.8309 C   0  0  0  0  0  0
   42.9670   11.6805   81.0478 C   0  0  0  0  0  0
   41.8145   13.4490   79.6808 C   0  0  0  0  0  0
   38.4247   15.4504   85.3042 C   0  0  0  0  0  0
   37.4240   16.2681   86.0331 C   0  0  0  0  0  0
   36.3791   15.6987   86.7858 C   0  0  0  0  0  0
   35.4553   16.5132   87.4482 C   0  0  0  0  0  0
   35.5517   17.9132   87.3717 C   0  0  0  0  0  0
   34.5769   18.7897   88.0660 C   0  0  0  0  0  0
   34.7308   20.0398   88.0394 O   0  0  0  0  0  0
   33.4909   18.2689   88.7689 O   0  0  0  0  0  0
   36.5784   18.4794   86.5973 C   0  0  0  0  0  0
   37.5017   17.6657   85.9355 C   0  0  0  0  0  0
   33.3565   17.2758   88.9077 H   0  0  0  0  0  0
  1  2  1  0  0  0
  2  3  2  0  0  0
  2  4  1  0  0  0
  4  5  2  0  0  0
  5  6  1  0  0  0
  6  7  2  0  0  0
  7  8  1  0  0  0
  8  9  2  0  0  0
  7 10  1  0  0  0
 10 11  1  0  0  0
 10 12  1  0  0  0
 10 13  1  0  0  0
 13 14  1  0  0  0
 14 15  1  0  0  0
 15 16  1  0  0  0
 15 17  1  0  0  0
  1 18  2  0  0  0
 18 19  1  0  0  0
 19 20  2  0  0  0
 20 21  1  0  0  0
 21 22  2  0  0  0
 22 23  1  0  0  0
 23 24  2  0  0  0
 23 25  1  0  0  0
 22 26  1  0  0  0
 26 27  2  0  0  0
  9  4  1  0  0  0
 27 19  1  0  0  0
 15  6  1  0  0  0
 25 28  1  0  0  0
M  END
>  <CHROM.0>
93.75029538,-56.21789560,70.15204001,-172.29873865,-176.19602949,56.31809037
-50.80539447,-177.50456652,72.11430752,61.88844803,-63.39414539,64.57627011
-176.02536629

>  <CHROM.1>
-172.22098774,-148.06536544,-1.27146532,176.15703930,5.34649637,39.88299871
15.47491395,84.20814374,2.64773924,0.55243164,0.25117751

>  <RI>
3.63097e+07

>  <Rbt.Current_Directory>
/extra/banzai2/j5wagner/CELPP/2016_10_17_rdock_implementation/normal_run/tutorialVideo/tutorial_rdock_implementation/full_week_run/4-docking/1fcz/hiResHolo_1fcy_docking

>  <Rbt.Executable>
rbdock ($Id: //depot/dev/client3/rdock/2013.1/src/exe/rbdock.cxx#4 $)

>  <Rbt.Library>
libRbt.so (2013.1, Build901 2013/11/27)

>  <Rbt.Parameter_File>
/home/j5wagner/env_00/source/rDock/rDock_2013.1_src//data/scripts/dock.prm

>  <Rbt.Receptor>
/extra/banzai2/j5wagner/CELPP/2016_10_17_rdock_implementation/normal_run/tutorialVideo/tutorial_rdock_implementation/full_week_run/4-docking/1fcz/hiResHolo_1fcy_tech_prep/rDockGridGenInput.prm

>  <SCORE>
-58.5892

>  <SCORE.INTER>
-26.665

>  <SCORE.INTER.CONST>
1

>  <SCORE.INTER.POLAR>
-1.05694

>  <SCORE.INTER.REPUL>
0

>  <SCORE.INTER.ROT>
4

>  <SCORE.INTER.VDW>
-32.4715

>  <SCORE.INTER.norm>
-0.987594

>  <SCORE.INTRA>
-2.50344

>  <SCORE.INTRA.DIHEDRAL>
-6.28393

>  <SCORE.INTRA.DIHEDRAL.0>
10.7811

>  <SCORE.INTRA.POLAR>
0

>  <SCORE.INTRA.POLAR.0>
0

>  <SCORE.INTRA.REPUL>
0

>  <SCORE.INTRA.REPUL.0>
0

>  <SCORE.INTRA.VDW>
0.63853

>  <SCORE.INTRA.VDW.0>
-0.812999

>  <SCORE.INTRA.norm>
-0.0927198

>  <SCORE.RESTR>
0

>  <SCORE.RESTR.CAVITY>
0

>  <SCORE.RESTR.norm>
0

>  <SCORE.SYSTEM>
-29.4207

>  <SCORE.SYSTEM.CONST>
0

>  <SCORE.SYSTEM.DIHEDRAL>
4.29726

>  <SCORE.SYSTEM.POLAR>
-7.93747

>  <SCORE.SYSTEM.VDW>
-4.58193

>  <SCORE.SYSTEM.norm>
-1.08966

>  <SCORE.heavy>
27

>  <SCORE.norm>
-2.16997

$$$$

  rDOCK(R)          3D
libRbt.so/2013.1/901 2013/11/27
 28 30  0  0  0  0  0  0  0  0999 V2000
   39.2391   14.9461   84.8912 C   0  0  0  0  0  0
   39.9746   13.7921   84.3321 C   0  0  0  0  0  0
   39.4363   12.6548   84.4051 O   0  0  0  0  0  0
   41.3157   13.9113   83.7101 C   0  0  0  0  0  0
   41.9350   15.1633   83.6152 C   0  0  0  0  0  0
   43.1979   15.3218   82.9991 C   0  0  0  0  0  0
   43.8856   14.1577   82.5407 C   0  0  0  0  0  0
   43.2147   12.9162   82.5884 C   0  0  0  0  0  0
   41.9520   12.7964   83.1602 C   0  0  0  0  0  0
   45.2904   14.2196   81.9217 C   0  0  0  0  0  0
   46.2021   13.1192   82.5202 C   0  0  0  0  0  0
   45.1790   13.9945   80.3964 C   0  0  0  0  0  0
   45.9787   15.5769   82.2092 C   0  0  0  0  0  0
   45.0440   16.7579   81.9782 C   0  0  0  0  0  0
   43.8150   16.7271   82.9208 C   0  0  0  0  0  0
   42.7926   17.7452   82.3563 C   0  0  0  0  0  0
   44.2271   17.1754   84.3418 C   0  0  0  0  0  0
   38.1072   14.8111   85.5983 C   0  0  0  0  0  0
   37.3512   15.9499   86.1753 C   0  0  0  0  0  0
   37.7476   17.2903   86.0052 C   0  0  0  0  0  0
   37.0053   18.3285   86.5768 C   0  0  0  0  0  0
   35.8533   18.0522   87.3330 C   0  0  0  0  0  0
   35.0582   19.1429   87.9483 C   0  0  0  0  0  0
   34.0434   18.8627   88.6404 O   0  0  0  0  0  0
   35.3917   20.4854   87.7714 O   0  0  0  0  0  0
   35.4752   16.7127   87.5251 C   0  0  0  0  0  0
   36.2167   15.6751   86.9539 C   0  0  0  0  0  0
   34.8778   21.2377   88.2112 H   0  0  0  0  0  0
  1  2  1  0  0  0
  2  3  2  0  0  0
  2  4  1  0  0  0
  4  5  2  0  0  0
  5  6  1  0  0  0
  6  7  2  0  0  0
  7  8  1  0  0  0
  8  9  2  0  0  0
  7 10  1  0  0  0
 10 11  1  0  0  0
 10 12  1  0  0  0
 10 13  1  0  0  0
 13 14  1  0  0  0
 14 15  1  0  0  0
 15 16  1  0  0  0
 15 17  1  0  0  0
  1 18  2  0  0  0
 18 19  1  0  0  0
 19 20  2  0  0  0
 20 21  1  0  0  0
 21 22  2  0  0  0
 22 23  1  0  0  0
 23 24  2  0  0  0
 23 25  1  0  0  0
 22 26  1  0  0  0
 26 27  2  0  0  0
  9  4  1  0  0  0
 27 19  1  0  0  0
 15  6  1  0  0  0
 25 28  1  0  0  0
M  END
>  <CHROM.0>
-146.34624651,-55.94036423,69.49803727,-175.33344906,-175.42337033,171.79474057
-51.79869866,70.53539172,71.02683974,60.78604770,-59.37559868,62.64662491
-55.74433176

>  <CHROM.1>
7.70000100,-0.91782467,1.32879953,-178.75880137,-177.80433876,40.54749549
15.83983983,84.50912132,2.74317863,0.47195950,0.16353139

>  <RI>
3.63097e+07

>  <Rbt.Current_Directory>
/extra/banzai2/j5wagner/CELPP/2016_10_17_rdock_implementation/normal_run/tutorialVideo/tutorial_rdock_implementation/full_week_run/4-docking/1fcz/hiResHolo_1fcy_docking

>  <Rbt.Executable>
rbdock ($Id: //depot/dev/client3/rdock/2013.1/src/exe/rbdock.cxx#4 $)

>  <Rbt.Library>
libRbt.so (2013.1, Build901 2013/11/27)

>  <Rbt.Parameter_File>
/home/j5wagner/env_00/source/rDock/rDock_2013.1_src//data/scripts/dock.prm

>  <Rbt.Receptor>
/extra/banzai2/j5wagner/CELPP/2016_10_17_rdock_implementation/normal_run/tutorialVideo/tutorial_rdock_implementation/full_week_run/4-docking/1fcz/hiResHolo_1fcy_tech_prep/rDockGridGenInput.prm

>  <SCORE>
-58.1238

>  <SCORE.INTER>
-24.4185

>  <SCORE.INTER.CONST>
1

>  <SCORE.INTER.POLAR>
-0.97416

>  <SCORE.INTER.REPUL>
0

>  <SCORE.INTER.ROT>
4

>  <SCORE.INTER.VDW>
-30.5064

>  <SCORE.INTER.norm>
-0.904389

>  <SCORE.INTRA>
-4.33605

>  <SCORE.INTRA.DIHEDRAL>
-10.4643

>  <SCORE.INTRA.DIHEDRAL.0>
10.7811

>  <SCORE.INTRA.POLAR>
0

>  <SCORE.INTRA.POLAR.0>
0

>  <SCORE.INTRA.REPUL>
0

>  <SCORE.INTRA.REPUL.0>
0

>  <SCORE.INTRA.VDW>
0.896109

>  <SCORE.INTRA.VDW.0>
-0.812999

>  <SCORE.INTRA.norm>
-0.160594

>  <SCORE.RESTR>
0

>  <SCORE.RESTR.CAVITY>
0

>  <SCORE.RESTR.norm>
0

>  <SCORE.SYSTEM>
-29.3692

>  <SCORE.SYSTEM.CONST>
0

>  <SCORE.SYSTEM.DIHEDRAL>
4.46618

>  <SCORE.SYSTEM.POLAR>
-7.94894

>  <SCORE.SYSTEM.VDW>
-4.57591

>  <SCORE.SYSTEM.norm>
-1.08775

>  <SCORE.heavy>
27

>  <SCORE.norm>
-2.15273

$$$$

  rDOCK(R)          3D
libRbt.so/2013.1/901 2013/11/27
 28 30  0  0  0  0  0  0  0  0999 V2000
   39.2711   15.4511   84.8493 C   0  0  0  0  0  0
   40.0089   14.4520   84.0476 C   0  0  0  0  0  0
   39.4912   13.3125   83.8989 O   0  0  0  0  0  0
   41.3298   14.7248   83.4308 C   0  0  0  0  0  0
   41.8029   13.9067   82.3980 C   0  0  0  0  0  0
   43.0712   14.1146   81.8082 C   0  0  0  0  0  0
   43.8437   15.2397   82.2274 C   0  0  0  0  0  0
   43.3757   16.0114   83.3133 C   0  0  0  0  0  0
   42.1427   15.7564   83.9054 C   0  0  0  0  0  0
   45.2010   15.5890   81.5982 C   0  0  0  0  0  0
   45.2841   17.1029   81.2793 C   0  0  0  0  0  0
   46.3258   15.2311   82.5964 C   0  0  0  0  0  0
   45.4182   14.8371   80.2617 C   0  0  0  0  0  0
   45.0336   13.3659   80.3585 C   0  0  0  0  0  0
   43.5317   13.1720   80.6851 C   0  0  0  0  0  0
   43.3524   11.6909   81.1032 C   0  0  0  0  0  0
   42.6778   13.4373   79.4239 C   0  0  0  0  0  0
   38.1172   15.1712   85.4733 C   0  0  0  0  0  0
   37.3582   16.1517   86.2882 C   0  0  0  0  0  0
   36.1761   15.8163   86.9758 C   0  0  0  0  0  0
   35.4920   16.7794   87.7240 C   0  0  0  0  0  0
   35.9704   18.0988   87.8002 C   0  0  0  0  0  0
   35.2533   19.1319   88.5871 C   0  0  0  0  0  0
   34.1423   18.8570   89.1138 O   0  0  0  0  0  0
   35.7669   20.4178   88.7523 O   0  0  0  0  0  0
   37.1346   18.4384   87.0907 C   0  0  0  0  0  0
   37.8184   17.4761   86.3431 C   0  0  0  0  0  0
   36.6681   20.6964   88.3866 H   0  0  0  0  0  0
  1  2  1  0  0  0
  2  3  2  0  0  0
  2  4  1  0  0  0
  4  5  2  0  0  0
  5  6  1  0  0  0
  6  7  2  0  0  0
  7  8  1  0  0  0
  8  9  2  0  0  0
  7 10  1  0  0  0
 10 11  1  0  0  0
 10 12  1  0  0  0
 10 13  1  0  0  0
 13 14  1  0  0  0
 14 15  1  0  0  0
 15 16  1  0  0  0
 15 17  1  0  0  0
  1 18  2  0  0  0
 18 19  1  0  0  0
 19 20  2  0  0  0
 20 21  1  0  0  0
 21 22  2  0  0  0
 22 23  1  0  0  0
 23 24  2  0  0  0
 23 25  1  0  0  0
 22 26  1  0  0  0
 26 27  2  0  0  0
  9  4  1  0  0  0
 27 19  1  0  0  0
 15  6  1  0  0  0
 25 28  1  0  0  0
M  END
>  <CHROM.0>
-29.22648444,-55.98456980,175.56717048,-55.63054526,-178.72812332,58.27826269
-55.34270384,74.22383332,68.52664511,60.71356132,177.08982001,63.05082956
-58.28716536

>  <CHROM.1>
3.43529556,-162.17456890,-177.43033778,-5.54743356,-3.10855084,40.53214170
15.71622314,84.12589878,2.53795309,0.45558125,0.48230174

>  <RI>
3.63097e+07

>  <Rbt.Current_Directory>
/extra/banzai2/j5wagner/CELPP/2016_10_17_rdock_implementation/normal_run/tutorialVideo/tutorial_rdock_implementation/full_week_run/4-docking/1fcz/hiResHolo_1fcy_docking

>  <Rbt.Executable>
rbdock ($Id: //depot/dev/client3/rdock/2013.1/src/exe/rbdock.cxx#4 $)

>  <Rbt.Library>
libRbt.so (2013.1, Build901 2013/11/27)

>  <Rbt.Parameter_File>
/home/j5wagner/env_00/source/rDock/rDock_2013.1_src//data/scripts/dock.prm

>  <Rbt.Receptor>
/extra/banzai2/j5wagner/CELPP/2016_10_17_rdock_implementation/normal_run/tutorialVideo/tutorial_rdock_implementation/full_week_run/4-docking/1fcz/hiResHolo_1fcy_tech_prep/rDockGridGenInput.prm

>  <SCORE>
-58.0683

>  <SCORE.INTER>
-26.4316

>  <SCORE.INTER.CONST>
1

>  <SCORE.INTER.POLAR>
-1.24732

>  <SCORE.INTER.REPUL>
0

>  <SCORE.INTER.ROT>
4

>  <SCORE.INTER.VDW>
-31.5907

>  <SCORE.INTER.norm>
-0.978947

>  <SCORE.INTRA>
-3.47748

>  <SCORE.INTRA.DIHEDRAL>
-9.03194

>  <SCORE.INTRA.DIHEDRAL.0>
10.7811

>  <SCORE.INTRA.POLAR>
0

>  <SCORE.INTRA.POLAR.0>
0

>  <SCORE.INTRA.REPUL>
0

>  <SCORE.INTRA.REPUL.0>
0

>  <SCORE.INTRA.VDW>
1.03849

>  <SCORE.INTRA.VDW.0>
-0.812999

>  <SCORE.INTRA.norm>
-0.128796

>  <SCORE.RESTR>
0

>  <SCORE.RESTR.CAVITY>
0

>  <SCORE.RESTR.norm>
0

>  <SCORE.SYSTEM>
-28.1592

>  <SCORE.SYSTEM.CONST>
0

>  <SCORE.SYSTEM.DIHEDRAL>
3.62693

>  <SCORE.SYSTEM.POLAR>
-7.92734

>  <SCORE.SYSTEM.VDW>
-3.01973

>  <SCORE.SYSTEM.norm>
-1.04293

>  <SCORE.heavy>
27

>  <SCORE.norm>
-2.15068

$$$$

  rDOCK(R)          3D
libRbt.so/2013.1/901 2013/11/27
 28 30  0  0  0  0  0  0  0  0999 V2000
   38.3548   14.0658   85.4393 C   0  0  0  0  0  0
   39.3487   13.2918   84.6658 C   0  0  0  0  0  0
   39.2013   12.0421   84.5948 O   0  0  0  0  0  0
   40.5127   13.9154   83.9905 C   0  0  0  0  0  0
   41.0110   13.3656   82.8034 C   0  0  0  0  0  0
   42.1391   13.9118   82.1488 C   0  0  0  0  0  0
   42.7252   15.1023   82.6756 C   0  0  0  0  0  0
   42.2469   15.6008   83.9071 C   0  0  0  0  0  0
   41.1623   15.0160   84.5534 C   0  0  0  0  0  0
   43.9085   15.8093   81.9973 C   0  0  0  0  0  0
   43.6628   17.3370   81.9193 C   0  0  0  0  0  0
   45.1887   15.5556   82.8258 C   0  0  0  0  0  0
   44.1096   15.3132   80.5439 C   0  0  0  0  0  0
   44.0276   13.7955   80.4361 C   0  0  0  0  0  0
   42.6386   13.2514   80.8540 C   0  0  0  0  0  0
   42.7957   11.7216   81.0430 C   0  0  0  0  0  0
   41.6097   13.5082   79.7291 C   0  0  0  0  0  0
   38.3682   15.4057   85.5016 C   0  0  0  0  0  0
   37.3812   16.2084   86.2652 C   0  0  0  0  0  0
   36.2610   15.6357   86.8975 C   0  0  0  0  0  0
   35.3543   16.4369   87.5985 C   0  0  0  0  0  0
   35.5435   17.8271   87.6815 C   0  0  0  0  0  0
   34.5880   18.6899   88.4185 C   0  0  0  0  0  0
   33.4939   18.2107   88.8191 O   0  0  0  0  0  0
   34.8571   20.0345   88.6724 O   0  0  0  0  0  0
   36.6465   18.4002   87.0264 C   0  0  0  0  0  0
   37.5527   17.5997   86.3260 C   0  0  0  0  0  0
   34.2219   20.6301   89.1875 H   0  0  0  0  0  0
  1  2  1  0  0  0
  2  3  2  0  0  0
  2  4  1  0  0  0
  4  5  2  0  0  0
  5  6  1  0  0  0
  6  7  2  0  0  0
  7  8  1  0  0  0
  8  9  2  0  0  0
  7 10  1  0  0  0
 10 11  1  0  0  0
 10 12  1  0  0  0
 10 13  1  0  0  0
 13 14  1  0  0  0
 14 15  1  0  0  0
 15 16  1  0  0  0
 15 17  1  0  0  0
  1 18  2  0  0  0
 18 19  1  0  0  0
 19 20  2  0  0  0
 20 21  1  0  0  0
 21 22  2  0  0  0
 22 23  1  0  0  0
 23 24  2  0  0  0
 23 25  1  0  0  0
 22 26  1  0  0  0
 26 27  2  0  0  0
  9  4  1  0  0  0
 27 19  1  0  0  0
 15  6  1  0  0  0
 25 28  1  0  0  0
M  END
>  <CHROM.0>
-28.56768825,-55.94693410,69.32127090,-55.11039212,-177.42626165,176.60114105
-55.95413898,-179.58978965,69.94411326,61.72926288,-60.61394290,64.61168935
-57.60064940

>  <CHROM.1>
-175.34244659,-148.04726445,-6.04227629,-10.04802133,-178.90937347,39.79057650
15.47072144,84.34729885,2.61810394,0.56561917,0.29922686

>  <RI>
3.63097e+07

>  <Rbt.Current_Directory>
/extra/banzai2/j5wagner/CELPP/2016_10_17_rdock_implementation/normal_run/tutorialVideo/tutorial_rdock_implementation/full_week_run/4-docking/1fcz/hiResHolo_1fcy_docking

>  <Rbt.Executable>
rbdock ($Id: //depot/dev/client3/rdock/2013.1/src/exe/rbdock.cxx#4 $)

>  <Rbt.Library>
libRbt.so (2013.1, Build901 2013/11/27)

>  <Rbt.Parameter_File>
/home/j5wagner/env_00/source/rDock/rDock_2013.1_src//data/scripts/dock.prm

>  <Rbt.Receptor>
/extra/banzai2/j5wagner/CELPP/2016_10_17_rdock_implementation/normal_run/tutorialVideo/tutorial_rdock_implementation/full_week_run/4-docking/1fcz/hiResHolo_1fcy_tech_prep/rDockGridGenInput.prm

>  <SCORE>
-57.803

>  <SCORE.INTER>
-25.6425

>  <SCORE.INTER.CONST>
1

>  <SCORE.INTER.POLAR>
-0.888939

>  <SCORE.INTER.REPUL>
0

>  <SCORE.INTER.ROT>
4

>  <SCORE.INTER.VDW>
-32.0201

>  <SCORE.INTER.norm>
-0.949723

>  <SCORE.INTRA>
-2.41818

>  <SCORE.INTRA.DIHEDRAL>
-6.19124

>  <SCORE.INTRA.DIHEDRAL.0>
10.7811

>  <SCORE.INTRA.POLAR>
0

>  <SCORE.INTRA.POLAR.0>
0

>  <SCORE.INTRA.REPUL>
0

>  <SCORE.INTRA.REPUL.0>
0

>  <SCORE.INTRA.VDW>
0.677442

>  <SCORE.INTRA.VDW.0>
-0.812999

>  <SCORE.INTRA.norm>
-0.0895622

>  <SCORE.RESTR>
0

>  <SCORE.RESTR.CAVITY>
0

>  <SCORE.RESTR.norm>
0

>  <SCORE.SYSTEM>
-29.7423

>  <SCORE.SYSTEM.CONST>
0

>  <SCORE.SYSTEM.DIHEDRAL>
3.24283

>  <SCORE.SYSTEM.POLAR>
-8.06606

>  <SCORE.SYSTEM.VDW>
-3.93909

>  <SCORE.SYSTEM.norm>
-1.10157

>  <SCORE.heavy>
27

>  <SCORE.norm>
-2.14085

$$$$

  rDOCK(R)          3D
libRbt.so/2013.1/901 2013/11/27
 28 30  0  0  0  0  0  0  0  0999 V2000
   38.7944   13.6656   85.5299 C   0  0  0  0  0  0
   39.7508   12.9822   84.6335 C   0  0  0  0  0  0
   39.6268   11.7383   84.4725 O   0  0  0  0  0  0
   40.8523   13.6886   83.9353 C   0  0  0  0  0  0
   41.3500   13.1881   82.7263 C   0  0  0  0  0  0
   42.4213   13.8147   82.0486 C   0  0  0  0  0  0
   42.9449   15.0333   82.5769 C   0  0  0  0  0  0
   42.4718   15.4832   83.8289 C   0  0  0  0  0  0
   41.4462   14.8211   84.4965 C   0  0  0  0  0  0
   44.0604   15.8241   81.8764 C   0  0  0  0  0  0
   43.7152   17.3337   81.8289 C   0  0  0  0  0  0
   45.3778   15.6423   82.6645 C   0  0  0  0  0  0
   44.2504   15.3617   80.4105 C   0  0  0  0  0  0
   44.2627   13.8435   80.2818 C   0  0  0  0  0  0
   42.9241   13.2055   80.7303 C   0  0  0  0  0  0
   43.1842   11.6866   80.8913 C   0  0  0  0  0  0
   41.8486   13.4106   79.6389 C   0  0  0  0  0  0
   38.6287   14.9967   85.5341 C   0  0  0  0  0  0
   37.6735   15.7088   86.4184 C   0  0  0  0  0  0
   37.1552   15.1364   87.5959 C   0  0  0  0  0  0
   36.2502   15.8457   88.3917 C   0  0  0  0  0  0
   35.8401   17.1401   88.0289 C   0  0  0  0  0  0
   34.8779   17.9029   88.8613 C   0  0  0  0  0  0
   34.2378   18.8629   88.3554 O   0  0  0  0  0  0
   34.6670   17.5988   90.2058 O   0  0  0  0  0  0
   36.3366   17.6986   86.8390 C   0  0  0  0  0  0
   37.2411   16.9900   86.0438 C   0  0  0  0  0  0
   33.9717   18.0707   90.7692 H   0  0  0  0  0  0
  1  2  1  0  0  0
  2  3  2  0  0  0
  2  4  1  0  0  0
  4  5  2  0  0  0
  5  6  1  0  0  0
  6  7  2  0  0  0
  7  8  1  0  0  0
  8  9  2  0  0  0
  7 10  1  0  0  0
 10 11  1  0  0  0
 10 12  1  0  0  0
 10 13  1  0  0  0
 13 14  1  0  0  0
 14 15  1  0  0  0
 15 16  1  0  0  0
 15 17  1  0  0  0
  1 18  2  0  0  0
 18 19  1  0  0  0
 19 20  2  0  0  0
 20 21  1  0  0  0
 21 22  2  0  0  0
 22 23  1  0  0  0
 23 24  2  0  0  0
 23 25  1  0  0  0
 22 26  1  0  0  0
 26 27  2  0  0  0
  9  4  1  0  0  0
 27 19  1  0  0  0
 15  6  1  0  0  0
 25 28  1  0  0  0
M  END
>  <CHROM.0>
-31.22152765,-55.45392470,66.28832303,-60.01663208,-177.78038620,-65.70371828
-54.10091786,-168.53440918,67.14268179,-51.79064966,174.60722314,67.58997409
179.55921898

>  <CHROM.1>
-163.92085435,-152.90690114,19.95300395,-159.73761970,-175.93919228,40.06606560
15.15053625,84.40907589,2.71066987,0.65519671,0.24457093

>  <RI>
3.63097e+07

>  <Rbt.Current_Directory>
/extra/banzai2/j5wagner/CELPP/2016_10_17_rdock_implementation/normal_run/tutorialVideo/tutorial_rdock_implementation/full_week_run/4-docking/1fcz/hiResHolo_1fcy_docking

>  <Rbt.Executable>
rbdock ($Id: //depot/dev/client3/rdock/2013.1/src/exe/rbdock.cxx#4 $)

>  <Rbt.Library>
libRbt.so (2013.1, Build901 2013/11/27)

>  <Rbt.Parameter_File>
/home/j5wagner/env_00/source/rDock/rDock_2013.1_src//data/scripts/dock.prm

>  <Rbt.Receptor>
/extra/banzai2/j5wagner/CELPP/2016_10_17_rdock_implementation/normal_run/tutorialVideo/tutorial_rdock_implementation/full_week_run/4-docking/1fcz/hiResHolo_1fcy_tech_prep/rDockGridGenInput.prm

>  <SCORE>
-57.5652

>  <SCORE.INTER>
-29.8525

>  <SCORE.INTER.CONST>
1

>  <SCORE.INTER.POLAR>
-1.96233

>  <SCORE.INTER.REPUL>
0

>  <SCORE.INTER.ROT>
4

>  <SCORE.INTER.VDW>
-32.5806

>  <SCORE.INTER.norm>
-1.10565

>  <SCORE.INTRA>
-1.26165

>  <SCORE.INTRA.DIHEDRAL>
-3.5965

>  <SCORE.INTRA.DIHEDRAL.0>
10.7811

>  <SCORE.INTRA.POLAR>
0

>  <SCORE.INTRA.POLAR.0>
0

>  <SCORE.INTRA.REPUL>
0

>  <SCORE.INTRA.REPUL.0>
0

>  <SCORE.INTRA.VDW>
0.536597

>  <SCORE.INTRA.VDW.0>
-0.812999

>  <SCORE.INTRA.norm>
-0.046728

>  <SCORE.RESTR>
0

>  <SCORE.RESTR.CAVITY>
0

>  <SCORE.RESTR.norm>
0

>  <SCORE.SYSTEM>
-26.451

>  <SCORE.SYSTEM.CONST>
0

>  <SCORE.SYSTEM.DIHEDRAL>
3.8816

>  <SCORE.SYSTEM.POLAR>
-7.58705

>  <SCORE.SYSTEM.REPUL>
0.00798705

>  <SCORE.SYSTEM.VDW>
-2.63576

>  <SCORE.SYSTEM.norm>
-0.979666

>  <SCORE.heavy>
27

>  <SCORE.norm>
-2.13204

$$$$

  rDOCK(R)          3D
libRbt.so/2013.1/901 2013/11/27
 28 30  0  0  0  0  0  0  0  0999 V2000
   39.2520   14.9342   84.9088 C   0  0  0  0  0  0
   39.9916   13.7750   84.3662 C   0  0  0  0  0  0
   39.4638   12.6350   84.4683 O   0  0  0  0  0  0
   41.3255   13.8923   83.7284 C   0  0  0  0  0  0
   41.9451   15.1434   83.6257 C   0  0  0  0  0  0
   43.2008   15.3002   82.9948 C   0  0  0  0  0  0
   43.8817   14.1350   82.5287 C   0  0  0  0  0  0
   43.2099   12.8944   82.5848 C   0  0  0  0  0  0
   41.9538   12.7763   83.1716 C   0  0  0  0  0  0
   45.2792   14.1950   81.8932 C   0  0  0  0  0  0
   46.1965   13.0937   82.4813 C   0  0  0  0  0  0
   45.1495   13.9695   80.3694 C   0  0  0  0  0  0
   45.9725   15.5516   82.1720 C   0  0  0  0  0  0
   45.0366   16.7336   81.9516 C   0  0  0  0  0  0
   43.8188   16.7047   82.9086 C   0  0  0  0  0  0
   42.7910   17.7238   82.3558 C   0  0  0  0  0  0
   44.2481   17.1530   84.3245 C   0  0  0  0  0  0
   38.1058   14.8070   85.5940 C   0  0  0  0  0  0
   37.3452   15.9513   86.1539 C   0  0  0  0  0  0
   37.7410   17.2902   85.9712 C   0  0  0  0  0  0
   36.9943   18.3337   86.5270 C   0  0  0  0  0  0
   35.8383   18.0645   87.2797 C   0  0  0  0  0  0
   35.0384   19.1610   87.8783 C   0  0  0  0  0  0
   34.0157   18.8875   88.5614 O   0  0  0  0  0  0
   35.3761   20.5015   87.6950 O   0  0  0  0  0  0
   35.4607   16.7267   87.4845 C   0  0  0  0  0  0
   36.2066   15.6838   86.9291 C   0  0  0  0  0  0
   34.8531   21.2583   88.1162 H   0  0  0  0  0  0
  1  2  1  0  0  0
  2  3  2  0  0  0
  2  4  1  0  0  0
  4  5  2  0  0  0
  5  6  1  0  0  0
  6  7  2  0  0  0
  7  8  1  0  0  0
  8  9  2  0  0  0
  7 10  1  0  0  0
 10 11  1  0  0  0
 10 12  1  0  0  0
 10 13  1  0  0  0
 13 14  1  0  0  0
 14 15  1  0  0  0
 15 16  1  0  0  0
 15 17  1  0  0  0
  1 18  2  0  0  0
 18 19  1  0  0  0
 19 20  2  0  0  0
 20 21  1  0  0  0
 21 22  2  0  0  0
 22 23  1  0  0  0
 23 24  2  0  0  0
 23 25  1  0  0  0
 22 26  1  0  0  0
 26 27  2  0  0  0
  9  4  1  0  0  0
 27 19  1  0  0  0
 15  6  1  0  0  0
 25 28  1  0  0  0
M  END
>  <CHROM.0>
-144.87098956,-57.94284983,70.33377800,-53.84746751,62.84975203,52.43915541
-50.88672922,71.02227831,69.52087345,58.05929697,68.64271992,64.61811830
-57.33898808

>  <CHROM.1>
5.54820101,0.37666163,2.34950348,-179.15794428,-178.44282862,40.54395712
15.83004077,84.48968617,2.74691557,0.47307503,0.14882481

>  <RI>
3.63097e+07

>  <Rbt.Current_Directory>
/extra/banzai2/j5wagner/CELPP/2016_10_17_rdock_implementation/normal_run/tutorialVideo/tutorial_rdock_implementation/full_week_run/4-docking/1fcz/hiResHolo_1fcy_docking

>  <Rbt.Executable>
rbdock ($Id: //depot/dev/client3/rdock/2013.1/src/exe/rbdock.cxx#4 $)

>  <Rbt.Library>
libRbt.so (2013.1, Build901 2013/11/27)

>  <Rbt.Parameter_File>
/home/j5wagner/env_00/source/rDock/rDock_2013.1_src//data/scripts/dock.prm

>  <Rbt.Receptor>
/extra/banzai2/j5wagner/CELPP/2016_10_17_rdock_implementation/normal_run/tutorialVideo/tutorial_rdock_implementation/full_week_run/4-docking/1fcz/hiResHolo_1fcy_tech_prep/rDockGridGenInput.prm

>  <SCORE>
-57.5561

>  <SCORE.INTER>
-24.3908

>  <SCORE.INTER.CONST>
1

>  <SCORE.INTER.POLAR>
-0.991207

>  <SCORE.INTER.REPUL>
0

>  <SCORE.INTER.ROT>
4

>  <SCORE.INTER.VDW>
-30.4207

>  <SCORE.INTER.norm>
-0.903364

>  <SCORE.INTRA>
-4.37748

>  <SCORE.INTRA.DIHEDRAL>
-10.5531

>  <SCORE.INTRA.DIHEDRAL.0>
10.7811

>  <SCORE.INTRA.POLAR>
0

>  <SCORE.INTRA.POLAR.0>
0

>  <SCORE.INTRA.REPUL>
0

>  <SCORE.INTRA.REPUL.0>
0

>  <SCORE.INTRA.VDW>
0.899093

>  <SCORE.INTRA.VDW.0>
-0.812999

>  <SCORE.INTRA.norm>
-0.162129

>  <SCORE.RESTR>
0

>  <SCORE.RESTR.CAVITY>
0

>  <SCORE.RESTR.norm>
0

>  <SCORE.SYSTEM>
-28.7877

>  <SCORE.SYSTEM.CONST>
0

>  <SCORE.SYSTEM.DIHEDRAL>
5.00077

>  <SCORE.SYSTEM.POLAR>
-7.88986

>  <SCORE.SYSTEM.VDW>
-4.46261

>  <SCORE.SYSTEM.norm>
-1.06621

>  <SCORE.heavy>
27

>  <SCORE.norm>
-2.13171

$$$$

  rDOCK(R)          3D
libRbt.so/2013.1/901 2013/11/27
 28 30  0  0  0  0  0  0  0  0999 V2000
   38.8533   13.7356   85.4977 C   0  0  0  0  0  0
   39.8148   13.0602   84.6006 C   0  0  0  0  0  0
   39.6920   11.8177   84.4281 O   0  0  0  0  0  0
   40.9200   13.7729   83.9147 C   0  0  0  0  0  0
   41.4267   13.2813   82.7059 C   0  0  0  0  0  0
   42.5016   13.9140   82.0397 C   0  0  0  0  0  0
   43.0199   15.1297   82.5798 C   0  0  0  0  0  0
   42.5375   15.5705   83.8315 C   0  0  0  0  0  0
   41.5084   14.9025   84.4876 C   0  0  0  0  0  0
   44.1388   15.9269   81.8923 C   0  0  0  0  0  0
   43.7917   17.4363   81.8526 C   0  0  0  0  0  0
   45.4511   15.7417   82.6881 C   0  0  0  0  0  0
   44.3396   15.4747   80.4247 C   0  0  0  0  0  0
   44.3550   13.9574   80.2857 C   0  0  0  0  0  0
   43.0144   13.3144   80.7208 C   0  0  0  0  0  0
   43.2757   11.7948   80.8733 C   0  0  0  0  0  0
   41.9460   13.5253   79.6235 C   0  0  0  0  0  0
   38.6455   15.0605   85.4725 C   0  0  0  0  0  0
   37.6841   15.7643   86.3567 C   0  0  0  0  0  0
   37.1071   15.1574   87.4887 C   0  0  0  0  0  0
   36.1988   15.8607   88.2861 C   0  0  0  0  0  0
   35.8438   17.1833   87.9701 C   0  0  0  0  0  0
   34.8789   17.9403   88.8046 C   0  0  0  0  0  0
   34.2272   18.8924   88.2985 O   0  0  0  0  0  0
   34.6778   17.6395   90.1514 O   0  0  0  0  0  0
   36.3992   17.7776   86.8244 C   0  0  0  0  0  0
   37.3070   17.0751   86.0275 C   0  0  0  0  0  0
   33.9833   18.1092   90.7175 H   0  0  0  0  0  0
  1  2  1  0  0  0
  2  3  2  0  0  0
  2  4  1  0  0  0
  4  5  2  0  0  0
  5  6  1  0  0  0
  6  7  2  0  0  0
  7  8  1  0  0  0
  8  9  2  0  0  0
  7 10  1  0  0  0
 10 11  1  0  0  0
 10 12  1  0  0  0
 10 13  1  0  0  0
 13 14  1  0  0  0
 14 15  1  0  0  0
 15 16  1  0  0  0
 15 17  1  0  0  0
  1 18  2  0  0  0
 18 19  1  0  0  0
 19 20  2  0  0  0
 20 21  1  0  0  0
 21 22  2  0  0  0
 22 23  1  0  0  0
 23 24  2  0  0  0
 23 25  1  0  0  0
 22 26  1  0  0  0
 26 27  2  0  0  0
  9  4  1  0  0  0
 27 19  1  0  0  0
 15  6  1  0  0  0
 25 28  1  0  0  0
M  END
>  <CHROM.0>
-25.89476650,-55.49367548,69.16296693,64.60510864,-59.54990109,-68.50657687
-52.11721934,-170.63930823,66.46807083,61.73961635,-64.90151484,-50.09996314
-56.96824753

>  <CHROM.1>
-160.96538056,-153.06170510,13.71074753,-155.37462841,-176.16583209,40.11678655
15.22843783,84.38262592,2.71616282,0.64495833,0.24888091

>  <RI>
3.63097e+07

>  <Rbt.Current_Directory>
/extra/banzai2/j5wagner/CELPP/2016_10_17_rdock_implementation/normal_run/tutorialVideo/tutorial_rdock_implementation/full_week_run/4-docking/1fcz/hiResHolo_1fcy_docking

>  <Rbt.Executable>
rbdock ($Id: //depot/dev/client3/rdock/2013.1/src/exe/rbdock.cxx#4 $)

>  <Rbt.Library>
libRbt.so (2013.1, Build901 2013/11/27)

>  <Rbt.Parameter_File>
/home/j5wagner/env_00/source/rDock/rDock_2013.1_src//data/scripts/dock.prm

>  <Rbt.Receptor>
/extra/banzai2/j5wagner/CELPP/2016_10_17_rdock_implementation/normal_run/tutorialVideo/tutorial_rdock_implementation/full_week_run/4-docking/1fcz/hiResHolo_1fcy_tech_prep/rDockGridGenInput.prm

>  <SCORE>
-57.5011

>  <SCORE.INTER>
-29.6032

>  <SCORE.INTER.CONST>
1

>  <SCORE.INTER.POLAR>
-1.95508

>  <SCORE.INTER.REPUL>
0

>  <SCORE.INTER.ROT>
4

>  <SCORE.INTER.VDW>
-32.3559

>  <SCORE.INTER.norm>
-1.09641

>  <SCORE.INTRA>
-1.25519

>  <SCORE.INTRA.DIHEDRAL>
-3.42341

>  <SCORE.INTRA.DIHEDRAL.0>
10.7811

>  <SCORE.INTRA.POLAR>
0

>  <SCORE.INTRA.POLAR.0>
0

>  <SCORE.INTRA.REPUL>
0

>  <SCORE.INTRA.REPUL.0>
0

>  <SCORE.INTRA.VDW>
0.456514

>  <SCORE.INTRA.VDW.0>
-0.812999

>  <SCORE.INTRA.norm>
-0.0464886

>  <SCORE.RESTR>
0

>  <SCORE.RESTR.CAVITY>
0

>  <SCORE.RESTR.norm>
0

>  <SCORE.SYSTEM>
-26.6427

>  <SCORE.SYSTEM.CONST>
0

>  <SCORE.SYSTEM.DIHEDRAL>
4.48651

>  <SCORE.SYSTEM.POLAR>
-7.52292

>  <SCORE.SYSTEM.VDW>
-3.30807

>  <SCORE.SYSTEM.norm>
-0.986768

>  <SCORE.heavy>
27

>  <SCORE.norm>
-2.12967

$$$$

  rDOCK(R)          3D
libRbt.so/2013.1/901 2013/11/27
 28 30  0  0  0  0  0  0  0  0999 V2000
   39.9670   15.7107   85.5765 C   0  0  0  0  0  0
   41.3264   15.8346   85.0090 C   0  0  0  0  0  0
   42.1124   16.6704   85.5309 O   0  0  0  0  0  0
   41.7954   15.0371   83.8498 C   0  0  0  0  0  0
   43.0940   15.2136   83.3576 C   0  0  0  0  0  0
   43.5657   14.4963   82.2340 C   0  0  0  0  0  0
   42.7162   13.5106   81.6465 C   0  0  0  0  0  0
   41.3904   13.3961   82.1183 C   0  0  0  0  0  0
   40.9381   14.1477   83.1983 C   0  0  0  0  0  0
   43.1638   12.6324   80.4680 C   0  0  0  0  0  0
   42.7895   11.1497   80.7161 C   0  0  0  0  0  0
   42.4526   13.1139   79.1827 C   0  0  0  0  0  0
   44.6997   12.6804   80.2746 C   0  0  0  0  0  0
   45.2470   14.1002   80.3553 C   0  0  0  0  0  0
   44.9997   14.7469   81.7411 C   0  0  0  0  0  0
   45.2679   16.2644   81.5810 C   0  0  0  0  0  0
   45.9947   14.1748   82.7769 C   0  0  0  0  0  0
   39.3468   16.7231   86.2007 C   0  0  0  0  0  0
   37.9820   16.6291   86.7751 C   0  0  0  0  0  0
   37.3192   15.4013   86.9644 C   0  0  0  0  0  0
   36.0288   15.3662   87.5019 C   0  0  0  0  0  0
   35.3701   16.5551   87.8595 C   0  0  0  0  0  0
   33.9998   16.5335   88.4273 C   0  0  0  0  0  0
   33.3852   17.6167   88.6181 O   0  0  0  0  0  0
   33.3673   15.3405   88.7755 O   0  0  0  0  0  0
   36.0219   17.7810   87.6437 C   0  0  0  0  0  0
   37.3115   17.8163   87.1068 C   0  0  0  0  0  0
   33.8009   14.4355   88.6473 H   0  0  0  0  0  0
  1  2  1  0  0  0
  2  3  2  0  0  0
  2  4  1  0  0  0
  4  5  2  0  0  0
  5  6  1  0  0  0
  6  7  2  0  0  0
  7  8  1  0  0  0
  8  9  2  0  0  0
  7 10  1  0  0  0
 10 11  1  0  0  0
 10 12  1  0  0  0
 10 13  1  0  0  0
 13 14  1  0  0  0
 14 15  1  0  0  0
 15 16  1  0  0  0
 15 17  1  0  0  0
  1 18  2  0  0  0
 18 19  1  0  0  0
 19 20  2  0  0  0
 20 21  1  0  0  0
 21 22  2  0  0  0
 22 23  1  0  0  0
 23 24  2  0  0  0
 23 25  1  0  0  0
 22 26  1  0  0  0
 26 27  2  0  0  0
  9  4  1  0  0  0
 27 19  1  0  0  0
 15  6  1  0  0  0
 25 28  1  0  0  0
M  END
>  <CHROM.0>
94.13189848,-58.37785707,68.36362858,62.15885736,-176.75053222,175.77221441
-51.09375678,175.27614817,69.56735881,60.85565010,-58.60783275,63.93652238
-177.51765545

>  <CHROM.1>
27.45097277,179.50913455,13.50307061,-173.18448348,-0.92794572,40.41551474
15.12619895,84.28037453,-2.52285634,-0.33516359,-2.40252912

>  <RI>
3.63097e+07

>  <Rbt.Current_Directory>
/extra/banzai2/j5wagner/CELPP/2016_10_17_rdock_implementation/normal_run/tutorialVideo/tutorial_rdock_implementation/full_week_run/4-docking/1fcz/hiResHolo_1fcy_docking

>  <Rbt.Executable>
rbdock ($Id: //depot/dev/client3/rdock/2013.1/src/exe/rbdock.cxx#4 $)

>  <Rbt.Library>
libRbt.so (2013.1, Build901 2013/11/27)

>  <Rbt.Parameter_File>
/home/j5wagner/env_00/source/rDock/rDock_2013.1_src//data/scripts/dock.prm

>  <Rbt.Receptor>
/extra/banzai2/j5wagner/CELPP/2016_10_17_rdock_implementation/normal_run/tutorialVideo/tutorial_rdock_implementation/full_week_run/4-docking/1fcz/hiResHolo_1fcy_tech_prep/rDockGridGenInput.prm

>  <SCORE>
-56.8036

>  <SCORE.INTER>
-24.3692

>  <SCORE.INTER.CONST>
1

>  <SCORE.INTER.POLAR>
-0.561159

>  <SCORE.INTER.REPUL>
0.000711821

>  <SCORE.INTER.ROT>
4

>  <SCORE.INTER.VDW>
-31.8648

>  <SCORE.INTER.norm>
-0.902562

>  <SCORE.INTRA>
-2.90775

>  <SCORE.INTRA.DIHEDRAL>
-7.30606

>  <SCORE.INTRA.DIHEDRAL.0>
10.7811

>  <SCORE.INTRA.POLAR>
0

>  <SCORE.INTRA.POLAR.0>
0

>  <SCORE.INTRA.REPUL>
0

>  <SCORE.INTRA.REPUL.0>
0

>  <SCORE.INTRA.VDW>
0.745284

>  <SCORE.INTRA.VDW.0>
-0.812999

>  <SCORE.INTRA.norm>
-0.107694

>  <SCORE.RESTR>
0

>  <SCORE.RESTR.CAVITY>
0

>  <SCORE.RESTR.norm>
0

>  <SCORE.SYSTEM>
-29.5267

>  <SCORE.SYSTEM.CONST>
0

>  <SCORE.SYSTEM.DIHEDRAL>
3.67148

>  <SCORE.SYSTEM.POLAR>
-7.89885

>  <SCORE.SYSTEM.VDW>
-4.50634

>  <SCORE.SYSTEM.norm>
-1.09358

>  <SCORE.heavy>
27

>  <SCORE.norm>
-2.10384

$$$$

  rDOCK(R)          3D
libRbt.so/2013.1/901 2013/11/27
 28 30  0  0  0  0  0  0  0  0999 V2000
   39.1106   14.5893   85.1787 C   0  0  0  0  0  0
   39.9982   13.4940   84.7341 C   0  0  0  0  0  0
   39.6466   12.3092   84.9813 O   0  0  0  0  0  0
   41.2832   13.7282   84.0314 C   0  0  0  0  0  0
   41.8121   15.0218   83.9515 C   0  0  0  0  0  0
   43.0171   15.2896   83.2615 C   0  0  0  0  0  0
   43.7458   14.1937   82.7081 C   0  0  0  0  0  0
   43.1616   12.9089   82.7449 C   0  0  0  0  0  0
   41.9513   12.6814   83.3924 C   0  0  0  0  0  0
   45.0981   14.3749   82.0017 C   0  0  0  0  0  0
   46.1179   13.3158   82.4900 C   0  0  0  0  0  0
   44.8975   14.2035   80.4786 C   0  0  0  0  0  0
   45.7151   15.7632   82.3031 C   0  0  0  0  0  0
   44.6923   16.8866   82.1861 C   0  0  0  0  0  0
   43.5352   16.7354   83.2050 C   0  0  0  0  0  0
   42.4128   17.7037   82.7542 C   0  0  0  0  0  0
   44.0135   17.1538   84.6143 C   0  0  0  0  0  0
   38.1236   14.4070   86.0687 C   0  0  0  0  0  0
   37.2213   15.4879   86.5366 C   0  0  0  0  0  0
   37.3194   16.8142   86.0741 C   0  0  0  0  0  0
   36.4501   17.7994   86.5528 C   0  0  0  0  0  0
   35.4661   17.4839   87.5054 C   0  0  0  0  0  0
   34.5395   18.5193   88.0249 C   0  0  0  0  0  0
   34.6644   19.7152   87.6488 O   0  0  0  0  0  0
   33.5320   18.2120   88.9389 O   0  0  0  0  0  0
   35.3880   16.1660   87.9865 C   0  0  0  0  0  0
   36.2564   15.1814   87.5082 C   0  0  0  0  0  0
   33.4513   17.3037   89.3770 H   0  0  0  0  0  0
  1  2  1  0  0  0
  2  3  2  0  0  0
  2  4  1  0  0  0
  4  5  2  0  0  0
  5  6  1  0  0  0
  6  7  2  0  0  0
  7  8  1  0  0  0
  8  9  2  0  0  0
  7 10  1  0  0  0
 10 11  1  0  0  0
 10 12  1  0  0  0
 10 13  1  0  0  0
 13 14  1  0  0  0
 14 15  1  0  0  0
 15 16  1  0  0  0
 15 17  1  0  0  0
  1 18  2  0  0  0
 18 19  1  0  0  0
 19 20  2  0  0  0
 20 21  1  0  0  0
 21 22  2  0  0  0
 22 23  1  0  0  0
 23 24  2  0  0  0
 23 25  1  0  0  0
 22 26  1  0  0  0
 26 27  2  0  0  0
  9  4  1  0  0  0
 27 19  1  0  0  0
 15  6  1  0  0  0
 25 28  1  0  0  0
M  END
>  <CHROM.0>
-29.52195593,-55.86976201,70.55282762,64.33049316,57.45669724,174.85798820
-51.89001244,-178.01156281,66.27590830,60.42107771,-63.60106154,64.95801133
-178.93185754

>  <CHROM.1>
14.99223639,10.36834364,0.41332273,-2.78468985,7.61853201,40.32624598,15.60184757
84.74907077,2.86565639,0.50685598,0.05263557

>  <RI>
3.63097e+07

>  <Rbt.Current_Directory>
/extra/banzai2/j5wagner/CELPP/2016_10_17_rdock_implementation/normal_run/tutorialVideo/tutorial_rdock_implementation/full_week_run/4-docking/1fcz/hiResHolo_1fcy_docking

>  <Rbt.Executable>
rbdock ($Id: //depot/dev/client3/rdock/2013.1/src/exe/rbdock.cxx#4 $)

>  <Rbt.Library>
libRbt.so (2013.1, Build901 2013/11/27)

>  <Rbt.Parameter_File>
/home/j5wagner/env_00/source/rDock/rDock_2013.1_src//data/scripts/dock.prm

>  <Rbt.Receptor>
/extra/banzai2/j5wagner/CELPP/2016_10_17_rdock_implementation/normal_run/tutorialVideo/tutorial_rdock_implementation/full_week_run/4-docking/1fcz/hiResHolo_1fcy_tech_prep/rDockGridGenInput.prm

>  <SCORE>
-56.8025

>  <SCORE.INTER>
-23.2911

>  <SCORE.INTER.CONST>
1

>  <SCORE.INTER.POLAR>
-0.988978

>  <SCORE.INTER.REPUL>
0

>  <SCORE.INTER.ROT>
4

>  <SCORE.INTER.VDW>
-29.3286

>  <SCORE.INTER.norm>
-0.862633

>  <SCORE.INTRA>
-3.67064

>  <SCORE.INTRA.DIHEDRAL>
-8.89558

>  <SCORE.INTRA.DIHEDRAL.0>
10.7811

>  <SCORE.INTRA.POLAR>
0

>  <SCORE.INTRA.POLAR.0>
0

>  <SCORE.INTRA.REPUL>
0

>  <SCORE.INTRA.REPUL.0>
0

>  <SCORE.INTRA.VDW>
0.777155

>  <SCORE.INTRA.VDW.0>
-0.812999

>  <SCORE.INTRA.norm>
-0.135949

>  <SCORE.RESTR>
0

>  <SCORE.RESTR.CAVITY>
0

>  <SCORE.RESTR.norm>
0

>  <SCORE.SYSTEM>
-29.8408

>  <SCORE.SYSTEM.CONST>
0

>  <SCORE.SYSTEM.DIHEDRAL>
3.3212

>  <SCORE.SYSTEM.POLAR>
-8.13453

>  <SCORE.SYSTEM.VDW>
-3.84398

>  <SCORE.SYSTEM.norm>
-1.10521

>  <SCORE.heavy>
27

>  <SCORE.norm>
-2.1038

$$$$

  rDOCK(R)          3D
libRbt.so/2013.1/901 2013/11/27
 28 30  0  0  0  0  0  0  0  0999 V2000
   38.4230   14.0166   85.4555 C   0  0  0  0  0  0
   39.4266   13.2517   84.6854 C   0  0  0  0  0  0
   39.3021   11.9987   84.6303 O   0  0  0  0  0  0
   40.5749   13.8885   83.9956 C   0  0  0  0  0  0
   41.0534   13.3545   82.7933 C   0  0  0  0  0  0
   42.1666   13.9135   82.1239 C   0  0  0  0  0  0
   42.7569   15.1008   82.6532 C   0  0  0  0  0  0
   42.2994   15.5830   83.8989 C   0  0  0  0  0  0
   41.2299   14.9859   84.5588 C   0  0  0  0  0  0
   43.9240   15.8211   81.9610 C   0  0  0  0  0  0
   43.6699   17.3483   81.9050 C   0  0  0  0  0  0
   45.2207   15.5642   82.7625 C   0  0  0  0  0  0
   44.1002   15.3423   80.4986 C   0  0  0  0  0  0
   44.0232   13.8256   80.3751 C   0  0  0  0  0  0
   42.6448   13.2702   80.8126 C   0  0  0  0  0  0
   42.8124   11.7391   80.9813 C   0  0  0  0  0  0
   41.5938   13.5347   79.7101 C   0  0  0  0  0  0
   38.4127   15.3571   85.5026 C   0  0  0  0  0  0
   37.4154   16.1506   86.2624 C   0  0  0  0  0  0
   36.3064   15.5658   86.9031 C   0  0  0  0  0  0
   35.3892   16.3586   87.6001 C   0  0  0  0  0  0
   35.5566   17.7522   87.6706 C   0  0  0  0  0  0
   34.5898   18.6062   88.4032 C   0  0  0  0  0  0
   33.5685   18.0864   88.9267 O   0  0  0  0  0  0
   34.7679   19.9843   88.5200 O   0  0  0  0  0  0
   36.6483   18.3370   87.0070 C   0  0  0  0  0  0
   37.5650   17.5450   86.3107 C   0  0  0  0  0  0
   34.1222   20.5769   89.0253 H   0  0  0  0  0  0
  1  2  1  0  0  0
  2  3  2  0  0  0
  2  4  1  0  0  0
  4  5  2  0  0  0
  5  6  1  0  0  0
  6  7  2  0  0  0
  7  8  1  0  0  0
  8  9  2  0  0  0
  7 10  1  0  0  0
 10 11  1  0  0  0
 10 12  1  0  0  0
 10 13  1  0  0  0
 13 14  1  0  0  0
 14 15  1  0  0  0
 15 16  1  0  0  0
 15 17  1  0  0  0
  1 18  2  0  0  0
 18 19  1  0  0  0
 19 20  2  0  0  0
 20 21  1  0  0  0
 21 22  2  0  0  0
 22 23  1  0  0  0
 23 24  2  0  0  0
 23 25  1  0  0  0
 22 26  1  0  0  0
 26 27  2  0  0  0
  9  4  1  0  0  0
 27 19  1  0  0  0
 15  6  1  0  0  0
 25 28  1  0  0  0
M  END
>  <CHROM.0>
-29.02150049,-59.42317542,69.12361457,58.87923822,-175.25162281,174.05407412
61.66298986,64.83109084,68.19822710,58.89661306,-59.76737915,61.77455981
-178.57600260

>  <CHROM.1>
-175.41189471,-146.32391884,-6.27355119,-2.99561016,-179.30031356,39.81743703
15.44235219,84.33063862,2.63823106,0.57950739,0.27756364

>  <RI>
3.63097e+07

>  <Rbt.Current_Directory>
/extra/banzai2/j5wagner/CELPP/2016_10_17_rdock_implementation/normal_run/tutorialVideo/tutorial_rdock_implementation/full_week_run/4-docking/1fcz/hiResHolo_1fcy_docking

>  <Rbt.Executable>
rbdock ($Id: //depot/dev/client3/rdock/2013.1/src/exe/rbdock.cxx#4 $)

>  <Rbt.Library>
libRbt.so (2013.1, Build901 2013/11/27)

>  <Rbt.Parameter_File>
/home/j5wagner/env_00/source/rDock/rDock_2013.1_src//data/scripts/dock.prm

>  <Rbt.Receptor>
/extra/banzai2/j5wagner/CELPP/2016_10_17_rdock_implementation/normal_run/tutorialVideo/tutorial_rdock_implementation/full_week_run/4-docking/1fcz/hiResHolo_1fcy_tech_prep/rDockGridGenInput.prm

>  <SCORE>
-56.7402

>  <SCORE.INTER>
-28.3157

>  <SCORE.INTER.CONST>
1

>  <SCORE.INTER.POLAR>
-1.63229

>  <SCORE.INTER.REPUL>
0

>  <SCORE.INTER.ROT>
4

>  <SCORE.INTER.VDW>
-32.1659

>  <SCORE.INTER.norm>
-1.04873

>  <SCORE.INTRA>
-2.47555

>  <SCORE.INTRA.DIHEDRAL>
-6.20212

>  <SCORE.INTRA.DIHEDRAL.0>
10.7811

>  <SCORE.INTRA.POLAR>
0

>  <SCORE.INTRA.POLAR.0>
0

>  <SCORE.INTRA.REPUL>
0

>  <SCORE.INTRA.REPUL.0>
0

>  <SCORE.INTRA.VDW>
0.625516

>  <SCORE.INTRA.VDW.0>
-0.812999

>  <SCORE.INTRA.norm>
-0.0916869

>  <SCORE.RESTR>
0

>  <SCORE.RESTR.CAVITY>
0

>  <SCORE.RESTR.norm>
0

>  <SCORE.SYSTEM>
-25.949

>  <SCORE.SYSTEM.CONST>
0

>  <SCORE.SYSTEM.DIHEDRAL>
2.93398

>  <SCORE.SYSTEM.POLAR>
-6.91559

>  <SCORE.SYSTEM.REPUL>
0.00480162

>  <SCORE.SYSTEM.VDW>
-3.92697

>  <SCORE.SYSTEM.norm>
-0.961073

>  <SCORE.heavy>
27

>  <SCORE.norm>
-2.10149

$$$$

  rDOCK(R)          3D
libRbt.so/2013.1/901 2013/11/27
 28 30  0  0  0  0  0  0  0  0999 V2000
   38.4359   14.1016   85.3688 C   0  0  0  0  0  0
   39.4065   13.2806   84.6144 C   0  0  0  0  0  0
   39.2142   12.0361   84.5604 O   0  0  0  0  0  0
   40.5973   13.8514   83.9391 C   0  0  0  0  0  0
   41.0669   13.2835   82.7488 C   0  0  0  0  0  0
   42.2182   13.7786   82.0939 C   0  0  0  0  0  0
   42.8606   14.9381   82.6242 C   0  0  0  0  0  0
   42.4087   15.4536   83.8585 C   0  0  0  0  0  0
   41.2991   14.9180   84.5049 C   0  0  0  0  0  0
   44.0746   15.5913   81.9461 C   0  0  0  0  0  0
   43.9010   17.1292   81.8746 C   0  0  0  0  0  0
   45.3431   15.2743   82.7709 C   0  0  0  0  0  0
   44.2494   15.0921   80.4904 C   0  0  0  0  0  0
   44.0958   13.5804   80.3768 C   0  0  0  0  0  0
   42.6836   13.1006   80.7956 C   0  0  0  0  0  0
   42.7688   11.5644   80.9783 C   0  0  0  0  0  0
   41.6658   13.4100   79.6738 C   0  0  0  0  0  0
   38.4769   15.4423   85.3835 C   0  0  0  0  0  0
   37.5138   16.2914   86.1270 C   0  0  0  0  0  0
   37.6774   17.6828   86.2679 C   0  0  0  0  0  0
   36.7455   18.4384   86.9862 C   0  0  0  0  0  0
   35.6317   17.8223   87.5822 C   0  0  0  0  0  0
   34.6370   18.6105   88.3502 C   0  0  0  0  0  0
   33.5927   18.0511   88.7790 O   0  0  0  0  0  0
   34.8141   19.9704   88.6033 O   0  0  0  0  0  0
   35.4851   16.4299   87.4643 C   0  0  0  0  0  0
   36.4161   15.6747   86.7464 C   0  0  0  0  0  0
   34.1490   20.5175   89.1343 H   0  0  0  0  0  0
  1  2  1  0  0  0
  2  3  2  0  0  0
  2  4  1  0  0  0
  4  5  2  0  0  0
  5  6  1  0  0  0
  6  7  2  0  0  0
  7  8  1  0  0  0
  8  9  2  0  0  0
  7 10  1  0  0  0
 10 11  1  0  0  0
 10 12  1  0  0  0
 10 13  1  0  0  0
 13 14  1  0  0  0
 14 15  1  0  0  0
 15 16  1  0  0  0
 15 17  1  0  0  0
  1 18  2  0  0  0
 18 19  1  0  0  0
 19 20  2  0  0  0
 20 21  1  0  0  0
 21 22  2  0  0  0
 22 23  1  0  0  0
 23 24  2  0  0  0
 23 25  1  0  0  0
 22 26  1  0  0  0
 26 27  2  0  0  0
  9  4  1  0  0  0
 27 19  1  0  0  0
 15  6  1  0  0  0
 25 28  1  0  0  0
M  END
>  <CHROM.0>
92.65353078,-55.55042783,71.35225797,62.88619980,-178.66662312,53.66881758
-51.75214652,-178.51174651,69.20297990,60.60741182,-57.71381227,63.59108637
63.11081825

>  <CHROM.1>
-173.56796918,-146.70073780,171.60753984,174.15217115,-179.30336168,39.88455730
15.38427453,84.28064622,2.59555209,0.54495882,0.32369018

>  <RI>
3.63097e+07

>  <Rbt.Current_Directory>
/extra/banzai2/j5wagner/CELPP/2016_10_17_rdock_implementation/normal_run/tutorialVideo/tutorial_rdock_implementation/full_week_run/4-docking/1fcz/hiResHolo_1fcy_docking

>  <Rbt.Executable>
rbdock ($Id: //depot/dev/client3/rdock/2013.1/src/exe/rbdock.cxx#4 $)

>  <Rbt.Library>
libRbt.so (2013.1, Build901 2013/11/27)

>  <Rbt.Parameter_File>
/home/j5wagner/env_00/source/rDock/rDock_2013.1_src//data/scripts/dock.prm

>  <Rbt.Receptor>
/extra/banzai2/j5wagner/CELPP/2016_10_17_rdock_implementation/normal_run/tutorialVideo/tutorial_rdock_implementation/full_week_run/4-docking/1fcz/hiResHolo_1fcy_tech_prep/rDockGridGenInput.prm

>  <SCORE>
-56.2085

>  <SCORE.INTER>
-24.5338

>  <SCORE.INTER.CONST>
1

>  <SCORE.INTER.POLAR>
-0.642202

>  <SCORE.INTER.REPUL>
0

>  <SCORE.INTER.ROT>
4

>  <SCORE.INTER.VDW>
-31.7503

>  <SCORE.INTER.norm>
-0.90866

>  <SCORE.INTRA>
-2.0827

>  <SCORE.INTRA.DIHEDRAL>
-5.99699

>  <SCORE.INTRA.DIHEDRAL.0>
10.7811

>  <SCORE.INTRA.POLAR>
0

>  <SCORE.INTRA.POLAR.0>
0

>  <SCORE.INTRA.REPUL>
0

>  <SCORE.INTRA.REPUL.0>
0

>  <SCORE.INTRA.VDW>
0.915799

>  <SCORE.INTRA.VDW.0>
-0.812999

>  <SCORE.INTRA.norm>
-0.0771369

>  <SCORE.RESTR>
0

>  <SCORE.RESTR.CAVITY>
0

>  <SCORE.RESTR.norm>
0

>  <SCORE.SYSTEM>
-29.592

>  <SCORE.SYSTEM.CONST>
0

>  <SCORE.SYSTEM.DIHEDRAL>
3.76298

>  <SCORE.SYSTEM.POLAR>
-8.02312

>  <SCORE.SYSTEM.VDW>
-4.19489

>  <SCORE.SYSTEM.norm>
-1.096

>  <SCORE.heavy>
27

>  <SCORE.norm>
-2.0818

$$$$

  rDOCK(R)          3D
libRbt.so/2013.1/901 2013/11/27
 28 30  0  0  0  0  0  0  0  0999 V2000
   39.3246   14.5651   85.0483 C   0  0  0  0  0  0
   40.2694   13.6283   84.4039 C   0  0  0  0  0  0
   40.0164   12.3951   84.4667 O   0  0  0  0  0  0
   41.5016   14.0723   83.7081 C   0  0  0  0  0  0
   41.9623   13.3741   82.5856 C   0  0  0  0  0  0
   43.1508   13.7467   81.9160 C   0  0  0  0  0  0
   43.8446   14.9151   82.3542 C   0  0  0  0  0  0
   43.3978   15.5643   83.5258 C   0  0  0  0  0  0
   42.2490   15.1484   84.1915 C   0  0  0  0  0  0
   45.1046   15.4396   81.6488 C   0  0  0  0  0  0
   45.0153   16.9713   81.4343 C   0  0  0  0  0  0
   46.3383   15.1341   82.5287 C   0  0  0  0  0  0
   45.2796   14.8007   80.2488 C   0  0  0  0  0  0
   45.0471   13.2949   80.2689 C   0  0  0  0  0  0
   43.6034   12.9295   80.6957 C   0  0  0  0  0  0
   43.6024   11.4141   81.0187 C   0  0  0  0  0  0
   42.6251   13.1872   79.5268 C   0  0  0  0  0  0
   38.3894   14.1648   85.9226 C   0  0  0  0  0  0
   37.4320   15.0825   86.5880 C   0  0  0  0  0  0
   36.6944   14.7150   87.7297 C   0  0  0  0  0  0
   35.7973   15.6138   88.3153 C   0  0  0  0  0  0
   35.6140   16.8974   87.7731 C   0  0  0  0  0  0
   34.6632   17.8599   88.3814 C   0  0  0  0  0  0
   34.3337   18.8980   87.7480 O   0  0  0  0  0  0
   34.1272   17.6594   89.6531 O   0  0  0  0  0  0
   36.3300   17.2523   86.6174 C   0  0  0  0  0  0
   37.2266   16.3544   86.0322 C   0  0  0  0  0  0
   33.4711   18.3029   90.0762 H   0  0  0  0  0  0
  1  2  1  0  0  0
  2  3  2  0  0  0
  2  4  1  0  0  0
  4  5  2  0  0  0
  5  6  1  0  0  0
  6  7  2  0  0  0
  7  8  1  0  0  0
  8  9  2  0  0  0
  7 10  1  0  0  0
 10 11  1  0  0  0
 10 12  1  0  0  0
 10 13  1  0  0  0
 13 14  1  0  0  0
 14 15  1  0  0  0
 15 16  1  0  0  0
 15 17  1  0  0  0
  1 18  2  0  0  0
 18 19  1  0  0  0
 19 20  2  0  0  0
 20 21  1  0  0  0
 21 22  2  0  0  0
 22 23  1  0  0  0
 23 24  2  0  0  0
 23 25  1  0  0  0
 22 26  1  0  0  0
 26 27  2  0  0  0
  9  4  1  0  0  0
 27 19  1  0  0  0
 15  6  1  0  0  0
 25 28  1  0  0  0
M  END
>  <CHROM.0>
-29.89215088,-55.83757831,174.85164748,-56.15825928,-178.13454915,52.69238817
-53.27003844,-171.22185203,69.86842060,-178.63448462,-62.18781707,63.51722852
63.78047146

>  <CHROM.1>
14.64151058,-146.19058378,-163.67190182,-166.97129948,-179.39084819,40.46394835
15.02207436,84.23664968,2.73098979,0.56225485,0.28734482

>  <RI>
3.63097e+07

>  <Rbt.Current_Directory>
/extra/banzai2/j5wagner/CELPP/2016_10_17_rdock_implementation/normal_run/tutorialVideo/tutorial_rdock_implementation/full_week_run/4-docking/1fcz/hiResHolo_1fcy_docking

>  <Rbt.Executable>
rbdock ($Id: //depot/dev/client3/rdock/2013.1/src/exe/rbdock.cxx#4 $)

>  <Rbt.Library>
libRbt.so (2013.1, Build901 2013/11/27)

>  <Rbt.Parameter_File>
/home/j5wagner/env_00/source/rDock/rDock_2013.1_src//data/scripts/dock.prm

>  <Rbt.Receptor>
/extra/banzai2/j5wagner/CELPP/2016_10_17_rdock_implementation/normal_run/tutorialVideo/tutorial_rdock_implementation/full_week_run/4-docking/1fcz/hiResHolo_1fcy_tech_prep/rDockGridGenInput.prm

>  <SCORE>
-56.2044

>  <SCORE.INTER>
-29.0215

>  <SCORE.INTER.CONST>
1

>  <SCORE.INTER.POLAR>
-1.68919

>  <SCORE.INTER.REPUL>
0

>  <SCORE.INTER.ROT>
4

>  <SCORE.INTER.VDW>
-32.6782

>  <SCORE.INTER.norm>
-1.07487

>  <SCORE.INTRA>
-1.21718

>  <SCORE.INTRA.DIHEDRAL>
-3.89762

>  <SCORE.INTRA.DIHEDRAL.0>
10.7811

>  <SCORE.INTRA.POLAR>
0

>  <SCORE.INTRA.POLAR.0>
0

>  <SCORE.INTRA.REPUL>
0

>  <SCORE.INTRA.REPUL.0>
0

>  <SCORE.INTRA.VDW>
0.731633

>  <SCORE.INTRA.VDW.0>
-0.812999

>  <SCORE.INTRA.norm>
-0.0450807

>  <SCORE.RESTR>
0

>  <SCORE.RESTR.CAVITY>
0

>  <SCORE.RESTR.norm>
0

>  <SCORE.SYSTEM>
-25.9658

>  <SCORE.SYSTEM.CONST>
0

>  <SCORE.SYSTEM.DIHEDRAL>
3.40412

>  <SCORE.SYSTEM.POLAR>
-7.2832

>  <SCORE.SYSTEM.VDW>
-2.90493

>  <SCORE.SYSTEM.norm>
-0.961695

>  <SCORE.heavy>
27

>  <SCORE.norm>
-2.08164

$$$$

  rDOCK(R)          3D
libRbt.so/2013.1/901 2013/11/27
 28 30  0  0  0  0  0  0  0  0999 V2000
   38.7053   13.8443   85.2846 C   0  0  0  0  0  0
   39.7167   13.1109   84.4944 C   0  0  0  0  0  0
   39.5885   11.8622   84.3809 O   0  0  0  0  0  0
   40.8766   13.7735   83.8498 C   0  0  0  0  0  0
   41.4008   13.2626   82.6565 C   0  0  0  0  0  0
   42.5261   13.8466   82.0302 C   0  0  0  0  0  0
   43.0815   15.0351   82.5933 C   0  0  0  0  0  0
   42.5778   15.4940   83.8300 C   0  0  0  0  0  0
   41.4969   14.8726   84.4476 C   0  0  0  0  0  0
   44.2592   15.7815   81.9479 C   0  0  0  0  0  0
   43.9842   17.3055   81.9036 C   0  0  0  0  0  0
   45.5335   15.5327   82.7869 C   0  0  0  0  0  0
   44.4886   15.3250   80.4858 C   0  0  0  0  0  0
   44.4382   13.8091   80.3403 C   0  0  0  0  0  0
   43.0551   13.2279   80.7266 C   0  0  0  0  0  0
   43.2401   11.6974   80.8806 C   0  0  0  0  0  0
   42.0357   13.4919   79.5946 C   0  0  0  0  0  0
   38.6024   15.1816   85.2684 C   0  0  0  0  0  0
   37.5948   15.9435   86.0466 C   0  0  0  0  0  0
   37.4116   17.3320   85.9005 C   0  0  0  0  0  0
   36.4537   18.0062   86.6642 C   0  0  0  0  0  0
   35.6599   17.3109   87.5925 C   0  0  0  0  0  0
   34.6424   18.0136   88.4120 C   0  0  0  0  0  0
   34.2192   19.1434   88.0492 O   0  0  0  0  0  0
   34.1440   17.4654   89.5934 O   0  0  0  0  0  0
   35.8634   15.9305   87.7570 C   0  0  0  0  0  0
   36.8205   15.2565   86.9939 C   0  0  0  0  0  0
   33.4574   17.9379   90.1669 H   0  0  0  0  0  0
  1  2  1  0  0  0
  2  3  2  0  0  0
  2  4  1  0  0  0
  4  5  2  0  0  0
  5  6  1  0  0  0
  6  7  2  0  0  0
  7  8  1  0  0  0
  8  9  2  0  0  0
  7 10  1  0  0  0
 10 11  1  0  0  0
 10 12  1  0  0  0
 10 13  1  0  0  0
 13 14  1  0  0  0
 14 15  1  0  0  0
 15 16  1  0  0  0
 15 17  1  0  0  0
  1 18  2  0  0  0
 18 19  1  0  0  0
 19 20  2  0  0  0
 20 21  1  0  0  0
 21 22  2  0  0  0
 22 23  1  0  0  0
 23 24  2  0  0  0
 23 25  1  0  0  0
 22 26  1  0  0  0
 26 27  2  0  0  0
  9  4  1  0  0  0
 27 19  1  0  0  0
 15  6  1  0  0  0
 25 28  1  0  0  0
M  END
>  <CHROM.0>
92.50250791,-56.51395288,68.26204781,62.16992632,-58.01454258,52.84513358
-53.13323512,-177.41592223,69.87256067,60.17891948,61.52931408,172.51003875
62.34874663

>  <CHROM.1>
-167.42717665,-148.68886906,-172.82359886,19.28628913,179.34336680,40.07268847
15.23078046,84.24852922,2.70015354,0.58561822,0.26307771

>  <RI>
3.63097e+07

>  <Rbt.Current_Directory>
/extra/banzai2/j5wagner/CELPP/2016_10_17_rdock_implementation/normal_run/tutorialVideo/tutorial_rdock_implementation/full_week_run/4-docking/1fcz/hiResHolo_1fcy_docking

>  <Rbt.Executable>
rbdock ($Id: //depot/dev/client3/rdock/2013.1/src/exe/rbdock.cxx#4 $)

>  <Rbt.Library>
libRbt.so (2013.1, Build901 2013/11/27)

>  <Rbt.Parameter_File>
/home/j5wagner/env_00/source/rDock/rDock_2013.1_src//data/scripts/dock.prm

>  <Rbt.Receptor>
/extra/banzai2/j5wagner/CELPP/2016_10_17_rdock_implementation/normal_run/tutorialVideo/tutorial_rdock_implementation/full_week_run/4-docking/1fcz/hiResHolo_1fcy_tech_prep/rDockGridGenInput.prm

>  <SCORE>
-56.1825

>  <SCORE.INTER>
-28.7075

>  <SCORE.INTER.CONST>
1

>  <SCORE.INTER.POLAR>
-1.56452

>  <SCORE.INTER.REPUL>
0.00809392

>  <SCORE.INTER.ROT>
4

>  <SCORE.INTER.VDW>
-32.8286

>  <SCORE.INTER.norm>
-1.06324

>  <SCORE.INTRA>
-1.61274

>  <SCORE.INTRA.DIHEDRAL>
-4.75562

>  <SCORE.INTRA.DIHEDRAL.0>
10.7811

>  <SCORE.INTRA.POLAR>
0

>  <SCORE.INTRA.POLAR.0>
0

>  <SCORE.INTRA.REPUL>
0

>  <SCORE.INTRA.REPUL.0>
0

>  <SCORE.INTRA.VDW>
0.765068

>  <SCORE.INTRA.VDW.0>
-0.812999

>  <SCORE.INTRA.norm>
-0.0597313

>  <SCORE.RESTR>
0

>  <SCORE.RESTR.CAVITY>
0

>  <SCORE.RESTR.norm>
0

>  <SCORE.SYSTEM>
-25.8622

>  <SCORE.SYSTEM.CONST>
0

>  <SCORE.SYSTEM.DIHEDRAL>
3.61457

>  <SCORE.SYSTEM.POLAR>
-7.34919

>  <SCORE.SYSTEM.VDW>
-2.68228

>  <SCORE.SYSTEM.norm>
-0.957861

>  <SCORE.heavy>
27

>  <SCORE.norm>
-2.08083

$$$$

  rDOCK(R)          3D
libRbt.so/2013.1/901 2013/11/27
 28 30  0  0  0  0  0  0  0  0999 V2000
   39.0931   15.0953   85.0576 C   0  0  0  0  0  0
   39.9896   14.1210   84.4001 C   0  0  0  0  0  0
   39.6588   12.9049   84.4192 O   0  0  0  0  0  0
   41.2603   14.5075   83.7402 C   0  0  0  0  0  0
   41.7418   13.7626   82.6571 C   0  0  0  0  0  0
   42.9657   14.0799   82.0237 C   0  0  0  0  0  0
   43.6777   15.2399   82.4547 C   0  0  0  0  0  0
   43.2068   15.9369   83.5888 C   0  0  0  0  0  0
   42.0213   15.5752   84.2211 C   0  0  0  0  0  0
   44.9790   15.7057   81.7839 C   0  0  0  0  0  0
   44.9448   17.2323   81.5220 C   0  0  0  0  0  0
   46.1685   15.3907   82.7195 C   0  0  0  0  0  0
   45.1875   15.0202   80.4108 C   0  0  0  0  0  0
   44.9085   13.5232   80.4652 C   0  0  0  0  0  0
   43.4392   13.2134   80.8461 C   0  0  0  0  0  0
   43.3796   11.7091   81.2123 C   0  0  0  0  0  0
   42.5142   13.4646   79.6330 C   0  0  0  0  0  0
   38.0818   14.7253   85.8574 C   0  0  0  0  0  0
   37.1699   15.6804   86.5339 C   0  0  0  0  0  0
   36.1339   15.2651   87.3924 C   0  0  0  0  0  0
   35.2951   16.2047   87.9997 C   0  0  0  0  0  0
   35.4693   17.5789   87.7617 C   0  0  0  0  0  0
   34.5849   18.5868   88.3961 C   0  0  0  0  0  0
   33.5173   18.2184   88.9545 O   0  0  0  0  0  0
   34.8918   19.9470   88.3814 O   0  0  0  0  0  0
   36.4857   17.9898   86.8829 C   0  0  0  0  0  0
   37.3241   17.0511   86.2760 C   0  0  0  0  0  0
   34.3166   20.6410   88.8407 H   0  0  0  0  0  0
  1  2  1  0  0  0
  2  3  2  0  0  0
  2  4  1  0  0  0
  4  5  2  0  0  0
  5  6  1  0  0  0
  6  7  2  0  0  0
  7  8  1  0  0  0
  8  9  2  0  0  0
  7 10  1  0  0  0
 10 11  1  0  0  0
 10 12  1  0  0  0
 10 13  1  0  0  0
 13 14  1  0  0  0
 14 15  1  0  0  0
 15 16  1  0  0  0
 15 17  1  0  0  0
  1 18  2  0  0  0
 18 19  1  0  0  0
 19 20  2  0  0  0
 20 21  1  0  0  0
 21 22  2  0  0  0
 22 23  1  0  0  0
 23 24  2  0  0  0
 23 25  1  0  0  0
 22 26  1  0  0  0
 26 27  2  0  0  0
  9  4  1  0  0  0
 27 19  1  0  0  0
 15  6  1  0  0  0
 25 28  1  0  0  0
M  END
>  <CHROM.0>
-144.66813363,-56.77954861,70.12538057,-56.06732252,55.82228051,173.54941571
-51.87040886,-177.19184918,70.30814738,61.17702779,179.06250376,63.74181102
-175.82731210

>  <CHROM.1>
11.70535946,-150.31399781,-178.55489050,-13.24395894,-177.56645006,40.28946611
15.49619544,84.28044199,2.66595924,0.51201367,0.34547607

>  <RI>
3.63097e+07

>  <Rbt.Current_Directory>
/extra/banzai2/j5wagner/CELPP/2016_10_17_rdock_implementation/normal_run/tutorialVideo/tutorial_rdock_implementation/full_week_run/4-docking/1fcz/hiResHolo_1fcy_docking

>  <Rbt.Executable>
rbdock ($Id: //depot/dev/client3/rdock/2013.1/src/exe/rbdock.cxx#4 $)

>  <Rbt.Library>
libRbt.so (2013.1, Build901 2013/11/27)

>  <Rbt.Parameter_File>
/home/j5wagner/env_00/source/rDock/rDock_2013.1_src//data/scripts/dock.prm

>  <Rbt.Receptor>
/extra/banzai2/j5wagner/CELPP/2016_10_17_rdock_implementation/normal_run/tutorialVideo/tutorial_rdock_implementation/full_week_run/4-docking/1fcz/hiResHolo_1fcy_tech_prep/rDockGridGenInput.prm

>  <SCORE>
-56.1743

>  <SCORE.INTER>
-25.0557

>  <SCORE.INTER.CONST>
1

>  <SCORE.INTER.POLAR>
-0.912651

>  <SCORE.INTER.REPUL>
0

>  <SCORE.INTER.ROT>
4

>  <SCORE.INTER.VDW>
-31.3527

>  <SCORE.INTER.norm>
-0.927989

>  <SCORE.INTRA>
-2.14802

>  <SCORE.INTRA.DIHEDRAL>
-5.98712

>  <SCORE.INTRA.DIHEDRAL.0>
10.7811

>  <SCORE.INTRA.POLAR>
0

>  <SCORE.INTRA.POLAR.0>
0

>  <SCORE.INTRA.REPUL>
0

>  <SCORE.INTRA.REPUL.0>
0

>  <SCORE.INTRA.VDW>
0.845544

>  <SCORE.INTRA.VDW.0>
-0.812999

>  <SCORE.INTRA.norm>
-0.0795561

>  <SCORE.RESTR>
0

>  <SCORE.RESTR.CAVITY>
0

>  <SCORE.RESTR.norm>
0

>  <SCORE.SYSTEM>
-28.9706

>  <SCORE.SYSTEM.CONST>
0

>  <SCORE.SYSTEM.DIHEDRAL>
4.02814

>  <SCORE.SYSTEM.POLAR>
-7.88013

>  <SCORE.SYSTEM.VDW>
-4.19224

>  <SCORE.SYSTEM.norm>
-1.07299

>  <SCORE.heavy>
27

>  <SCORE.norm>
-2.08053

$$$$

  rDOCK(R)          3D
libRbt.so/2013.1/901 2013/11/27
 28 30  0  0  0  0  0  0  0  0999 V2000
   39.9755   15.9387   85.4929 C   0  0  0  0  0  0
   41.3667   15.9190   84.9935 C   0  0  0  0  0  0
   42.2159   16.6453   85.5767 O   0  0  0  0  0  0
   41.7989   15.1018   83.8337 C   0  0  0  0  0  0
   43.0667   15.2969   83.2730 C   0  0  0  0  0  0
   43.5013   14.5609   82.1465 C   0  0  0  0  0  0
   42.6501   13.5385   81.6282 C   0  0  0  0  0  0
   41.3525   13.4041   82.1683 C   0  0  0  0  0  0
   40.9343   14.1737   83.2494 C   0  0  0  0  0  0
   43.0620   12.6397   80.4523 C   0  0  0  0  0  0
   42.7395   11.1554   80.7577 C   0  0  0  0  0  0
   42.2761   13.0677   79.1919 C   0  0  0  0  0  0
   44.5848   12.7206   80.1814 C   0  0  0  0  0  0
   45.0980   14.1552   80.1973 C   0  0  0  0  0  0
   44.9022   14.8335   81.5763 C   0  0  0  0  0  0
   45.1223   16.3523   81.3631 C   0  0  0  0  0  0
   45.9616   14.3152   82.5758 C   0  0  0  0  0  0
   39.4671   16.9709   86.1824 C   0  0  0  0  0  0
   38.0742   17.0203   86.6911 C   0  0  0  0  0  0
   37.4983   18.1916   87.2192 C   0  0  0  0  0  0
   36.1831   18.1846   87.6944 C   0  0  0  0  0  0
   35.4148   17.0083   87.6560 C   0  0  0  0  0  0
   34.0198   16.9850   88.1599 C   0  0  0  0  0  0
   33.3517   15.9184   88.1009 O   0  0  0  0  0  0
   33.4103   18.1222   88.6889 O   0  0  0  0  0  0
   36.0005   15.8337   87.1546 C   0  0  0  0  0  0
   37.3146   15.8405   86.6796 C   0  0  0  0  0  0
   33.9208   18.9733   88.8855 H   0  0  0  0  0  0
  1  2  1  0  0  0
  2  3  2  0  0  0
  2  4  1  0  0  0
  4  5  2  0  0  0
  5  6  1  0  0  0
  6  7  2  0  0  0
  7  8  1  0  0  0
  8  9  2  0  0  0
  7 10  1  0  0  0
 10 11  1  0  0  0
 10 12  1  0  0  0
 10 13  1  0  0  0
 13 14  1  0  0  0
 14 15  1  0  0  0
 15 16  1  0  0  0
 15 17  1  0  0  0
  1 18  2  0  0  0
 18 19  1  0  0  0
 19 20  2  0  0  0
 20 21  1  0  0  0
 21 22  2  0  0  0
 22 23  1  0  0  0
 23 24  2  0  0  0
 23 25  1  0  0  0
 22 26  1  0  0  0
 26 27  2  0  0  0
  9  4  1  0  0  0
 27 19  1  0  0  0
 15  6  1  0  0  0
 25 28  1  0  0  0
M  END
>  <CHROM.0>
-26.91428830,-56.02760349,172.86500076,-176.72647039,-58.14630793,-74.43453516
-52.57671479,175.89696570,67.02324879,59.16663564,-65.96261620,60.55727545
-179.90381806

>  <CHROM.1>
23.68172469,169.20297158,-169.43643376,179.34870259,-9.47309959,40.40299568
15.33289649,84.18258715,-2.48713449,-0.29522066,-2.39833624

>  <RI>
3.63097e+07

>  <Rbt.Current_Directory>
/extra/banzai2/j5wagner/CELPP/2016_10_17_rdock_implementation/normal_run/tutorialVideo/tutorial_rdock_implementation/full_week_run/4-docking/1fcz/hiResHolo_1fcy_docking

>  <Rbt.Executable>
rbdock ($Id: //depot/dev/client3/rdock/2013.1/src/exe/rbdock.cxx#4 $)

>  <Rbt.Library>
libRbt.so (2013.1, Build901 2013/11/27)

>  <Rbt.Parameter_File>
/home/j5wagner/env_00/source/rDock/rDock_2013.1_src//data/scripts/dock.prm

>  <Rbt.Receptor>
/extra/banzai2/j5wagner/CELPP/2016_10_17_rdock_implementation/normal_run/tutorialVideo/tutorial_rdock_implementation/full_week_run/4-docking/1fcz/hiResHolo_1fcy_tech_prep/rDockGridGenInput.prm

>  <SCORE>
-55.3605

>  <SCORE.INTER>
-23.4025

>  <SCORE.INTER.CONST>
1

>  <SCORE.INTER.POLAR>
-0.983883

>  <SCORE.INTER.REPUL>
0.00577447

>  <SCORE.INTER.ROT>
4

>  <SCORE.INTER.VDW>
-29.4861

>  <SCORE.INTER.norm>
-0.866758

>  <SCORE.INTRA>
-2.70401

>  <SCORE.INTRA.DIHEDRAL>
-7.46413

>  <SCORE.INTRA.DIHEDRAL.0>
10.7811

>  <SCORE.INTRA.POLAR>
0

>  <SCORE.INTRA.POLAR.0>
0

>  <SCORE.INTRA.REPUL>
0

>  <SCORE.INTRA.REPUL.0>
0

>  <SCORE.INTRA.VDW>
1.02805

>  <SCORE.INTRA.VDW.0>
-0.812999

>  <SCORE.INTRA.norm>
-0.100149

>  <SCORE.RESTR>
0

>  <SCORE.RESTR.CAVITY>
0

>  <SCORE.RESTR.norm>
0

>  <SCORE.SYSTEM>
-29.254

>  <SCORE.SYSTEM.CONST>
0

>  <SCORE.SYSTEM.DIHEDRAL>
3.7219

>  <SCORE.SYSTEM.POLAR>
-8.10245

>  <SCORE.SYSTEM.VDW>
-3.56663

>  <SCORE.SYSTEM.norm>
-1.08348

>  <SCORE.heavy>
27

>  <SCORE.norm>
-2.05039

$$$$

  rDOCK(R)          3D
libRbt.so/2013.1/901 2013/11/27
 28 30  0  0  0  0  0  0  0  0999 V2000
   38.4174   14.0102   85.4513 C   0  0  0  0  0  0
   39.4030   13.2366   84.6669 C   0  0  0  0  0  0
   39.2418   11.9898   84.5775 O   0  0  0  0  0  0
   40.5741   13.8571   84.0010 C   0  0  0  0  0  0
   41.0474   13.3384   82.7900 C   0  0  0  0  0  0
   42.1811   13.8817   82.1425 C   0  0  0  0  0  0
   42.7998   15.0392   82.7043 C   0  0  0  0  0  0
   42.3457   15.5046   83.9577 C   0  0  0  0  0  0
   41.2547   14.9221   84.5950 C   0  0  0  0  0  0
   43.9921   15.7427   82.0382 C   0  0  0  0  0  0
   43.7810   17.2774   82.0166 C   0  0  0  0  0  0
   45.2746   15.4308   82.8430 C   0  0  0  0  0  0
   44.1669   15.2938   80.5662 C   0  0  0  0  0  0
   44.0487   13.7831   80.4060 C   0  0  0  0  0  0
   42.6519   13.2563   80.8199 C   0  0  0  0  0  0
   42.7755   11.7177   80.9533 C   0  0  0  0  0  0
   41.6177   13.5760   79.7161 C   0  0  0  0  0  0
   38.4040   15.3512   85.4787 C   0  0  0  0  0  0
   37.4245   16.1534   86.2523 C   0  0  0  0  0  0
   36.3767   15.5696   86.9898 C   0  0  0  0  0  0
   35.4733   16.3700   87.6960 C   0  0  0  0  0  0
   35.5936   17.7702   87.6795 C   0  0  0  0  0  0
   34.6406   18.6321   88.4208 C   0  0  0  0  0  0
   33.5969   18.1285   88.9153 O   0  0  0  0  0  0
   34.8563   20.0008   88.5775 O   0  0  0  0  0  0
   36.6228   18.3521   86.9203 C   0  0  0  0  0  0
   37.5256   17.5524   86.2147 C   0  0  0  0  0  0
   34.2198   20.5984   89.0887 H   0  0  0  0  0  0
  1  2  1  0  0  0
  2  3  2  0  0  0
  2  4  1  0  0  0
  4  5  2  0  0  0
  5  6  1  0  0  0
  6  7  2  0  0  0
  7  8  1  0  0  0
  8  9  2  0  0  0
  7 10  1  0  0  0
 10 11  1  0  0  0
 10 12  1  0  0  0
 10 13  1  0  0  0
 13 14  1  0  0  0
 14 15  1  0  0  0
 15 16  1  0  0  0
 15 17  1  0  0  0
  1 18  2  0  0  0
 18 19  1  0  0  0
 19 20  2  0  0  0
 20 21  1  0  0  0
 21 22  2  0  0  0
 22 23  1  0  0  0
 23 24  2  0  0  0
 23 25  1  0  0  0
 22 26  1  0  0  0
 26 27  2  0  0  0
  9  4  1  0  0  0
 27 19  1  0  0  0
 15  6  1  0  0  0
 25 28  1  0  0  0
M  END
>  <CHROM.0>
89.33763018,-178.97108472,64.58588331,61.26322890,56.08445556,59.52568304
-48.56290297,65.69797553,67.55304175,58.98044028,-65.88339629,64.56407548
69.07654383

>  <CHROM.1>
-171.85920869,-146.54687185,-2.73675342,-10.34415347,-179.34251279,39.84190683
15.42251629,84.34888875,2.62075005,0.56563469,0.29959296

>  <RI>
3.63097e+07

>  <Rbt.Current_Directory>
/extra/banzai2/j5wagner/CELPP/2016_10_17_rdock_implementation/normal_run/tutorialVideo/tutorial_rdock_implementation/full_week_run/4-docking/1fcz/hiResHolo_1fcy_docking

>  <Rbt.Executable>
rbdock ($Id: //depot/dev/client3/rdock/2013.1/src/exe/rbdock.cxx#4 $)

>  <Rbt.Library>
libRbt.so (2013.1, Build901 2013/11/27)

>  <Rbt.Parameter_File>
/home/j5wagner/env_00/source/rDock/rDock_2013.1_src//data/scripts/dock.prm

>  <Rbt.Receptor>
/extra/banzai2/j5wagner/CELPP/2016_10_17_rdock_implementation/normal_run/tutorialVideo/tutorial_rdock_implementation/full_week_run/4-docking/1fcz/hiResHolo_1fcy_tech_prep/rDockGridGenInput.prm

>  <SCORE>
-55.355

>  <SCORE.INTER>
-28.524

>  <SCORE.INTER.CONST>
1

>  <SCORE.INTER.POLAR>
-1.556

>  <SCORE.INTER.REPUL>
0

>  <SCORE.INTER.ROT>
4

>  <SCORE.INTER.VDW>
-32.6336

>  <SCORE.INTER.norm>
-1.05644

>  <SCORE.INTRA>
-2.35366

>  <SCORE.INTRA.DIHEDRAL>
-5.78803

>  <SCORE.INTRA.DIHEDRAL.0>
10.7811

>  <SCORE.INTRA.POLAR>
0

>  <SCORE.INTRA.POLAR.0>
0

>  <SCORE.INTRA.REPUL>
0

>  <SCORE.INTRA.REPUL.0>
0

>  <SCORE.INTRA.VDW>
0.540356

>  <SCORE.INTRA.VDW.0>
-0.812999

>  <SCORE.INTRA.norm>
-0.0871726

>  <SCORE.RESTR>
0

>  <SCORE.RESTR.CAVITY>
0

>  <SCORE.RESTR.norm>
0

>  <SCORE.SYSTEM>
-24.4774

>  <SCORE.SYSTEM.CONST>
0

>  <SCORE.SYSTEM.DIHEDRAL>
3.43775

>  <SCORE.SYSTEM.POLAR>
-6.6216

>  <SCORE.SYSTEM.VDW>
-3.68281

>  <SCORE.SYSTEM.norm>
-0.906569

>  <SCORE.heavy>
27

>  <SCORE.norm>
-2.05019

$$$$

  rDOCK(R)          3D
libRbt.so/2013.1/901 2013/11/27
 28 30  0  0  0  0  0  0  0  0999 V2000
   39.1527   14.4658   85.1963 C   0  0  0  0  0  0
   40.0548   13.4078   84.6943 C   0  0  0  0  0  0
   39.7120   12.2069   84.8645 O   0  0  0  0  0  0
   41.3443   13.6960   84.0205 C   0  0  0  0  0  0
   41.8319   15.0074   83.9730 C   0  0  0  0  0  0
   43.0400   15.3265   83.3110 C   0  0  0  0  0  0
   43.8145   14.2649   82.7528 C   0  0  0  0  0  0
   43.2722   12.9613   82.7563 C   0  0  0  0  0  0
   42.0581   12.6831   83.3765 C   0  0  0  0  0  0
   45.1730   14.5025   82.0758 C   0  0  0  0  0  0
   46.2178   13.4685   82.5652 C   0  0  0  0  0  0
   45.0065   14.3519   80.5463 C   0  0  0  0  0  0
   45.7384   15.9045   82.4128 C   0  0  0  0  0  0
   44.6817   16.9960   82.2956 C   0  0  0  0  0  0
   43.5114   16.7891   83.2894 C   0  0  0  0  0  0
   42.3664   17.7283   82.8339 C   0  0  0  0  0  0
   43.9494   17.1976   84.7146 C   0  0  0  0  0  0
   38.1839   14.2274   86.0929 C   0  0  0  0  0  0
   37.2677   15.2697   86.6179 C   0  0  0  0  0  0
   36.3081   15.0073   87.6143 C   0  0  0  0  0  0
   35.4613   16.0226   88.0700 C   0  0  0  0  0  0
   35.5511   17.3209   87.5395 C   0  0  0  0  0  0
   34.6570   18.4069   88.0104 C   0  0  0  0  0  0
   34.8705   19.5942   87.6467 O   0  0  0  0  0  0
   33.5840   18.1568   88.8653 O   0  0  0  0  0  0
   36.4901   17.5741   86.5254 C   0  0  0  0  0  0
   37.3365   16.5598   86.0701 C   0  0  0  0  0  0
   33.4117   17.2469   89.2726 H   0  0  0  0  0  0
  1  2  1  0  0  0
  2  3  2  0  0  0
  2  4  1  0  0  0
  4  5  2  0  0  0
  5  6  1  0  0  0
  6  7  2  0  0  0
  7  8  1  0  0  0
  8  9  2  0  0  0
  7 10  1  0  0  0
 10 11  1  0  0  0
 10 12  1  0  0  0
 10 13  1  0  0  0
 13 14  1  0  0  0
 14 15  1  0  0  0
 15 16  1  0  0  0
 15 17  1  0  0  0
  1 18  2  0  0  0
 18 19  1  0  0  0
 19 20  2  0  0  0
 20 21  1  0  0  0
 21 22  2  0  0  0
 22 23  1  0  0  0
 23 24  2  0  0  0
 23 25  1  0  0  0
 22 26  1  0  0  0
 26 27  2  0  0  0
  9  4  1  0  0  0
 27 19  1  0  0  0
 15  6  1  0  0  0
 25 28  1  0  0  0
M  END
>  <CHROM.0>
-29.54645586,-57.39762567,68.57343777,-57.14693568,-60.04617974,48.35496656
-50.58117105,70.82779581,67.41410566,-175.17316351,177.47809037,63.46178720
60.75572579

>  <CHROM.1>
16.99142147,7.46140467,-176.34227061,170.89507962,5.74026812,40.38061262
15.56562624,84.77998482,2.88113051,0.50282799,0.06252367

>  <RI>
3.63097e+07

>  <Rbt.Current_Directory>
/extra/banzai2/j5wagner/CELPP/2016_10_17_rdock_implementation/normal_run/tutorialVideo/tutorial_rdock_implementation/full_week_run/4-docking/1fcz/hiResHolo_1fcy_docking

>  <Rbt.Executable>
rbdock ($Id: //depot/dev/client3/rdock/2013.1/src/exe/rbdock.cxx#4 $)

>  <Rbt.Library>
libRbt.so (2013.1, Build901 2013/11/27)

>  <Rbt.Parameter_File>
/home/j5wagner/env_00/source/rDock/rDock_2013.1_src//data/scripts/dock.prm

>  <Rbt.Receptor>
/extra/banzai2/j5wagner/CELPP/2016_10_17_rdock_implementation/normal_run/tutorialVideo/tutorial_rdock_implementation/full_week_run/4-docking/1fcz/hiResHolo_1fcy_tech_prep/rDockGridGenInput.prm

>  <SCORE>
-55.0991

>  <SCORE.INTER>
-25.1966

>  <SCORE.INTER.CONST>
1

>  <SCORE.INTER.POLAR>
-1.66624

>  <SCORE.INTER.REPUL>
0

>  <SCORE.INTER.ROT>
4

>  <SCORE.INTER.VDW>
-28.9314

>  <SCORE.INTER.norm>
-0.933209

>  <SCORE.INTRA>
-3.30872

>  <SCORE.INTRA.DIHEDRAL>
-8.72386

>  <SCORE.INTRA.DIHEDRAL.0>
10.7811

>  <SCORE.INTRA.POLAR>
0

>  <SCORE.INTRA.POLAR.0>
0

>  <SCORE.INTRA.REPUL>
0

>  <SCORE.INTRA.REPUL.0>
0

>  <SCORE.INTRA.VDW>
1.05321

>  <SCORE.INTRA.VDW.0>
-0.812999

>  <SCORE.INTRA.norm>
-0.122545

>  <SCORE.RESTR>
0

>  <SCORE.RESTR.CAVITY>
0

>  <SCORE.RESTR.norm>
0

>  <SCORE.SYSTEM>
-26.5937

>  <SCORE.SYSTEM.CONST>
0

>  <SCORE.SYSTEM.DIHEDRAL>
4.05358

>  <SCORE.SYSTEM.POLAR>
-7.44308

>  <SCORE.SYSTEM.VDW>
-3.31399

>  <SCORE.SYSTEM.norm>
-0.984951

>  <SCORE.heavy>
27

>  <SCORE.norm>
-2.04071

$$$$

  rDOCK(R)          3D
libRbt.so/2013.1/901 2013/11/27
 28 30  0  0  0  0  0  0  0  0999 V2000
   39.1938   14.6160   85.1138 C   0  0  0  0  0  0
   40.1929   13.6815   84.5536 C   0  0  0  0  0  0
   39.9921   12.4452   84.6944 O   0  0  0  0  0  0
   41.4207   14.1328   83.8545 C   0  0  0  0  0  0
   41.8636   13.4580   82.7107 C   0  0  0  0  0  0
   43.0473   13.8376   82.0368 C   0  0  0  0  0  0
   43.7548   14.9901   82.4945 C   0  0  0  0  0  0
   43.3261   15.6147   83.6860 C   0  0  0  0  0  0
   42.1816   15.1917   84.3547 C   0  0  0  0  0  0
   45.0108   15.5218   81.7874 C   0  0  0  0  0  0
   44.9309   17.0589   81.6101 C   0  0  0  0  0  0
   46.2519   15.1866   82.6459 C   0  0  0  0  0  0
   45.1655   14.9150   80.3709 C   0  0  0  0  0  0
   44.9217   13.4109   80.3581 C   0  0  0  0  0  0
   43.4801   13.0461   80.7925 C   0  0  0  0  0  0
   43.4711   11.5236   81.0796 C   0  0  0  0  0  0
   42.4908   13.3386   79.6411 C   0  0  0  0  0  0
   38.3263   14.2605   86.0731 C   0  0  0  0  0  0
   37.3169   15.1779   86.6571 C   0  0  0  0  0  0
   36.5153   14.8244   87.7594 C   0  0  0  0  0  0
   35.5713   15.7220   88.2680 C   0  0  0  0  0  0
   35.4041   16.9905   87.6863 C   0  0  0  0  0  0
   34.4043   17.9515   88.2128 C   0  0  0  0  0  0
   34.2411   19.0610   87.6386 O   0  0  0  0  0  0
   33.6403   17.6708   89.3452 O   0  0  0  0  0  0
   36.1852   17.3307   86.5691 C   0  0  0  0  0  0
   37.1287   16.4340   86.0608 C   0  0  0  0  0  0
   33.6735   16.7769   89.8177 H   0  0  0  0  0  0
  1  2  1  0  0  0
  2  3  2  0  0  0
  2  4  1  0  0  0
  4  5  2  0  0  0
  5  6  1  0  0  0
  6  7  2  0  0  0
  7  8  1  0  0  0
  8  9  2  0  0  0
  7 10  1  0  0  0
 10 11  1  0  0  0
 10 12  1  0  0  0
 10 13  1  0  0  0
 13 14  1  0  0  0
 14 15  1  0  0  0
 15 16  1  0  0  0
 15 17  1  0  0  0
  1 18  2  0  0  0
 18 19  1  0  0  0
 19 20  2  0  0  0
 20 21  1  0  0  0
 21 22  2  0  0  0
 22 23  1  0  0  0
 23 24  2  0  0  0
 23 25  1  0  0  0
 22 26  1  0  0  0
 26 27  2  0  0  0
  9  4  1  0  0  0
 27 19  1  0  0  0
 15  6  1  0  0  0
 25 28  1  0  0  0
M  END
>  <CHROM.0>
-142.89540610,-56.04603421,71.06202938,-56.06845742,60.96245591,173.38989536
-51.51977102,173.07148329,64.28460033,-53.34849352,-61.33841855,65.40306451
-58.26246102

>  <CHROM.1>
20.17033295,-139.91619249,-173.02377522,-177.26235576,-5.05434140,40.33354655
15.10355924,84.29778782,2.76220602,0.55533020,0.24240169

>  <RI>
3.63097e+07

>  <Rbt.Current_Directory>
/extra/banzai2/j5wagner/CELPP/2016_10_17_rdock_implementation/normal_run/tutorialVideo/tutorial_rdock_implementation/full_week_run/4-docking/1fcz/hiResHolo_1fcy_docking

>  <Rbt.Executable>
rbdock ($Id: //depot/dev/client3/rdock/2013.1/src/exe/rbdock.cxx#4 $)

>  <Rbt.Library>
libRbt.so (2013.1, Build901 2013/11/27)

>  <Rbt.Parameter_File>
/home/j5wagner/env_00/source/rDock/rDock_2013.1_src//data/scripts/dock.prm

>  <Rbt.Receptor>
/extra/banzai2/j5wagner/CELPP/2016_10_17_rdock_implementation/normal_run/tutorialVideo/tutorial_rdock_implementation/full_week_run/4-docking/1fcz/hiResHolo_1fcy_tech_prep/rDockGridGenInput.prm

>  <SCORE>
-54.4963

>  <SCORE.INTER>
-27.3569

>  <SCORE.INTER.CONST>
1

>  <SCORE.INTER.POLAR>
-1.43408

>  <SCORE.INTER.REPUL>
0.0164706

>  <SCORE.INTER.ROT>
4

>  <SCORE.INTER.VDW>
-31.9634

>  <SCORE.INTER.norm>
-1.01322

>  <SCORE.INTRA>
-0.929719

>  <SCORE.INTRA.DIHEDRAL>
-3.22868

>  <SCORE.INTRA.DIHEDRAL.0>
10.7811

>  <SCORE.INTRA.POLAR>
0

>  <SCORE.INTRA.POLAR.0>
0

>  <SCORE.INTRA.REPUL>
0

>  <SCORE.INTRA.REPUL.0>
0

>  <SCORE.INTRA.VDW>
0.684619

>  <SCORE.INTRA.VDW.0>
-0.812999

>  <SCORE.INTRA.norm>
-0.034434

>  <SCORE.RESTR>
0

>  <SCORE.RESTR.CAVITY>
0

>  <SCORE.RESTR.norm>
0

>  <SCORE.SYSTEM>
-26.2097

>  <SCORE.SYSTEM.CONST>
0

>  <SCORE.SYSTEM.DIHEDRAL>
4.32435

>  <SCORE.SYSTEM.POLAR>
-7.12579

>  <SCORE.SYSTEM.REPUL>
0.033118

>  <SCORE.SYSTEM.VDW>
-4.30976

>  <SCORE.SYSTEM.norm>
-0.970729

>  <SCORE.heavy>
27

>  <SCORE.norm>
-2.01838

$$$$

  rDOCK(R)          3D
libRbt.so/2013.1/901 2013/11/27
 28 30  0  0  0  0  0  0  0  0999 V2000
   38.4790   14.0454   85.3484 C   0  0  0  0  0  0
   39.4830   13.2594   84.6003 C   0  0  0  0  0  0
   39.3422   12.0077   84.5557 O   0  0  0  0  0  0
   40.6494   13.8737   83.9207 C   0  0  0  0  0  0
   41.1102   13.3480   82.7078 C   0  0  0  0  0  0
   42.2392   13.8853   82.0473 C   0  0  0  0  0  0
   42.8659   15.0439   82.5978 C   0  0  0  0  0  0
   42.4247   15.5165   83.8530 C   0  0  0  0  0  0
   41.3381   14.9399   84.5032 C   0  0  0  0  0  0
   44.0539   15.7412   81.9173 C   0  0  0  0  0  0
   43.8463   17.2762   81.8902 C   0  0  0  0  0  0
   45.3429   15.4300   82.7118 C   0  0  0  0  0  0
   44.2139   15.2848   80.4459 C   0  0  0  0  0  0
   44.0905   13.7736   80.2942 C   0  0  0  0  0  0
   42.6963   13.2524   80.7235 C   0  0  0  0  0  0
   42.8174   11.7141   80.8632 C   0  0  0  0  0  0
   41.6528   13.5693   79.6277 C   0  0  0  0  0  0
   38.4670   15.3867   85.3559 C   0  0  0  0  0  0
   37.4694   16.2010   86.0930 C   0  0  0  0  0  0
   36.4206   15.6283   86.8377 C   0  0  0  0  0  0
   35.5001   16.4397   87.5082 C   0  0  0  0  0  0
   35.6038   17.8401   87.4481 C   0  0  0  0  0  0
   34.6325   18.7134   88.1512 C   0  0  0  0  0  0
   34.7826   19.9640   88.1238 O   0  0  0  0  0  0
   33.5541   18.1891   88.8632 O   0  0  0  0  0  0
   36.6343   18.4099   86.6816 C   0  0  0  0  0  0
   37.5543   17.5993   86.0116 C   0  0  0  0  0  0
   33.4020   17.1945   88.9689 H   0  0  0  0  0  0
  1  2  1  0  0  0
  2  3  2  0  0  0
  2  4  1  0  0  0
  4  5  2  0  0  0
  5  6  1  0  0  0
  6  7  2  0  0  0
  7  8  1  0  0  0
  8  9  2  0  0  0
  7 10  1  0  0  0
 10 11  1  0  0  0
 10 12  1  0  0  0
 10 13  1  0  0  0
 13 14  1  0  0  0
 14 15  1  0  0  0
 15 16  1  0  0  0
 15 17  1  0  0  0
  1 18  2  0  0  0
 18 19  1  0  0  0
 19 20  2  0  0  0
 20 21  1  0  0  0
 21 22  2  0  0  0
 22 23  1  0  0  0
 23 24  2  0  0  0
 23 25  1  0  0  0
 22 26  1  0  0  0
 26 27  2  0  0  0
  9  4  1  0  0  0
 27 19  1  0  0  0
 15  6  1  0  0  0
 25 28  1  0  0  0
M  END
>  <CHROM.0>
93.04763861,-56.66158070,-56.02951892,62.31477403,64.02714655,-67.04780971
-52.76634883,-173.61399073,68.06381219,59.48214207,-59.55439578,-52.16193364
62.70731146

>  <CHROM.1>
-173.75375482,-144.22376114,-1.23357003,177.12472561,2.64285495,39.88197993
15.43397436,84.21137430,2.64357766,0.56720647,0.26462117

>  <RI>
3.63097e+07

>  <Rbt.Current_Directory>
/extra/banzai2/j5wagner/CELPP/2016_10_17_rdock_implementation/normal_run/tutorialVideo/tutorial_rdock_implementation/full_week_run/4-docking/1fcz/hiResHolo_1fcy_docking

>  <Rbt.Executable>
rbdock ($Id: //depot/dev/client3/rdock/2013.1/src/exe/rbdock.cxx#4 $)

>  <Rbt.Library>
libRbt.so (2013.1, Build901 2013/11/27)

>  <Rbt.Parameter_File>
/home/j5wagner/env_00/source/rDock/rDock_2013.1_src//data/scripts/dock.prm

>  <Rbt.Receptor>
/extra/banzai2/j5wagner/CELPP/2016_10_17_rdock_implementation/normal_run/tutorialVideo/tutorial_rdock_implementation/full_week_run/4-docking/1fcz/hiResHolo_1fcy_tech_prep/rDockGridGenInput.prm

>  <SCORE>
-54.4749

>  <SCORE.INTER>
-26.5719

>  <SCORE.INTER.CONST>
1

>  <SCORE.INTER.POLAR>
-0.898005

>  <SCORE.INTER.REPUL>
0

>  <SCORE.INTER.ROT>
4

>  <SCORE.INTER.VDW>
-32.9186

>  <SCORE.INTER.norm>
-0.984143

>  <SCORE.INTRA>
-2.37448

>  <SCORE.INTRA.DIHEDRAL>
-5.74431

>  <SCORE.INTRA.DIHEDRAL.0>
10.7811

>  <SCORE.INTRA.POLAR>
0

>  <SCORE.INTRA.POLAR.0>
0

>  <SCORE.INTRA.REPUL>
0

>  <SCORE.INTRA.REPUL.0>
0

>  <SCORE.INTRA.VDW>
0.497674

>  <SCORE.INTRA.VDW.0>
-0.812999

>  <SCORE.INTRA.norm>
-0.0879437

>  <SCORE.RESTR>
0

>  <SCORE.RESTR.CAVITY>
0

>  <SCORE.RESTR.norm>
0

>  <SCORE.SYSTEM>
-25.5285

>  <SCORE.SYSTEM.CONST>
0

>  <SCORE.SYSTEM.DIHEDRAL>
3.4926

>  <SCORE.SYSTEM.POLAR>
-7.32452

>  <SCORE.SYSTEM.VDW>
-2.37149

>  <SCORE.SYSTEM.norm>
-0.945502

>  <SCORE.heavy>
27

>  <SCORE.norm>
-2.01759

$$$$

  rDOCK(R)          3D
libRbt.so/2013.1/901 2013/11/27
 28 30  0  0  0  0  0  0  0  0999 V2000
   39.1019   15.3639   84.9770 C   0  0  0  0  0  0
   39.8821   14.3409   84.2488 C   0  0  0  0  0  0
   39.4271   13.1662   84.2089 O   0  0  0  0  0  0
   41.1758   14.6311   83.5840 C   0  0  0  0  0  0
   41.6188   13.8224   82.5307 C   0  0  0  0  0  0
   42.8616   14.0471   81.8946 C   0  0  0  0  0  0
   43.6367   15.1792   82.2894 C   0  0  0  0  0  0
   43.2013   15.9412   83.3955 C   0  0  0  0  0  0
   41.9943   15.6700   84.0323 C   0  0  0  0  0  0
   44.9655   15.5463   81.6112 C   0  0  0  0  0  0
   45.0196   17.0622   81.2960 C   0  0  0  0  0  0
   46.1309   15.1972   82.5650 C   0  0  0  0  0  0
   45.1407   14.8021   80.2643 C   0  0  0  0  0  0
   44.7765   13.3263   80.3691 C   0  0  0  0  0  0
   43.2902   13.1141   80.7510 C   0  0  0  0  0  0
   43.1432   11.6295   81.1691 C   0  0  0  0  0  0
   42.3865   13.3746   79.5239 C   0  0  0  0  0  0
   38.2231   15.0546   85.9420 C   0  0  0  0  0  0
   37.4306   16.0597   86.6925 C   0  0  0  0  0  0
   37.3515   17.4107   86.3036 C   0  0  0  0  0  0
   36.5975   18.3216   87.0500 C   0  0  0  0  0  0
   35.9085   17.9057   88.2022 C   0  0  0  0  0  0
   35.1079   18.8615   89.0058 C   0  0  0  0  0  0
   34.9573   18.6666   90.2414 O   0  0  0  0  0  0
   34.4959   19.9741   88.4294 O   0  0  0  0  0  0
   36.0115   16.5634   88.6044 C   0  0  0  0  0  0
   36.7647   15.6529   87.8586 C   0  0  0  0  0  0
   34.1343   20.7433   88.9781 H   0  0  0  0  0  0
  1  2  1  0  0  0
  2  3  2  0  0  0
  2  4  1  0  0  0
  4  5  2  0  0  0
  5  6  1  0  0  0
  6  7  2  0  0  0
  7  8  1  0  0  0
  8  9  2  0  0  0
  7 10  1  0  0  0
 10 11  1  0  0  0
 10 12  1  0  0  0
 10 13  1  0  0  0
 13 14  1  0  0  0
 14 15  1  0  0  0
 15 16  1  0  0  0
 15 17  1  0  0  0
  1 18  2  0  0  0
 18 19  1  0  0  0
 19 20  2  0  0  0
 20 21  1  0  0  0
 21 22  2  0  0  0
 22 23  1  0  0  0
 23 24  2  0  0  0
 23 25  1  0  0  0
 22 26  1  0  0  0
 26 27  2  0  0  0
  9  4  1  0  0  0
 27 19  1  0  0  0
 15  6  1  0  0  0
 25 28  1  0  0  0
M  END
>  <CHROM.0>
-145.17378747,-58.74372452,175.59677416,63.25249486,-178.65882477,-70.67475289
-52.51204399,168.69751643,69.52187103,60.84623840,70.15081885,62.88967099
-177.51040997

>  <CHROM.1>
23.15544770,-156.29813540,11.54624428,-151.29497759,-165.36165982,40.38150566
15.60187191,84.33754585,2.56316454,0.53362244,0.42770142

>  <RI>
3.63097e+07

>  <Rbt.Current_Directory>
/extra/banzai2/j5wagner/CELPP/2016_10_17_rdock_implementation/normal_run/tutorialVideo/tutorial_rdock_implementation/full_week_run/4-docking/1fcz/hiResHolo_1fcy_docking

>  <Rbt.Executable>
rbdock ($Id: //depot/dev/client3/rdock/2013.1/src/exe/rbdock.cxx#4 $)

>  <Rbt.Library>
libRbt.so (2013.1, Build901 2013/11/27)

>  <Rbt.Parameter_File>
/home/j5wagner/env_00/source/rDock/rDock_2013.1_src//data/scripts/dock.prm

>  <Rbt.Receptor>
/extra/banzai2/j5wagner/CELPP/2016_10_17_rdock_implementation/normal_run/tutorialVideo/tutorial_rdock_implementation/full_week_run/4-docking/1fcz/hiResHolo_1fcy_tech_prep/rDockGridGenInput.prm

>  <SCORE>
-54.2821

>  <SCORE.INTER>
-25.8693

>  <SCORE.INTER.CONST>
1

>  <SCORE.INTER.POLAR>
-1.24473

>  <SCORE.INTER.REPUL>
0

>  <SCORE.INTER.ROT>
4

>  <SCORE.INTER.VDW>
-31.0372

>  <SCORE.INTER.norm>
-0.958122

>  <SCORE.INTRA>
-0.273975

>  <SCORE.INTRA.DIHEDRAL>
-1.51514

>  <SCORE.INTRA.DIHEDRAL.0>
10.7811

>  <SCORE.INTRA.POLAR>
0

>  <SCORE.INTRA.POLAR.0>
0

>  <SCORE.INTRA.REPUL>
0

>  <SCORE.INTRA.REPUL.0>
0

>  <SCORE.INTRA.VDW>
0.483597

>  <SCORE.INTRA.VDW.0>
-0.812999

>  <SCORE.INTRA.norm>
-0.0101472

>  <SCORE.RESTR>
0

>  <SCORE.RESTR.CAVITY>
0

>  <SCORE.RESTR.norm>
0

>  <SCORE.SYSTEM>
-28.1388

>  <SCORE.SYSTEM.CONST>
0

>  <SCORE.SYSTEM.DIHEDRAL>
4.54796

>  <SCORE.SYSTEM.POLAR>
-7.87881

>  <SCORE.SYSTEM.VDW>
-3.62482

>  <SCORE.SYSTEM.norm>
-1.04218

>  <SCORE.heavy>
27

>  <SCORE.norm>
-2.01045

$$$$

  rDOCK(R)          3D
libRbt.so/2013.1/901 2013/11/27
 28 30  0  0  0  0  0  0  0  0999 V2000
   38.4534   13.7199   85.3698 C   0  0  0  0  0  0
   39.3129   12.7391   84.6736 C   0  0  0  0  0  0
   38.9545   11.5308   84.6753 O   0  0  0  0  0  0
   40.5781   13.1101   83.9942 C   0  0  0  0  0  0
   41.0829   14.4102   84.1152 C   0  0  0  0  0  0
   42.2677   14.8107   83.4554 C   0  0  0  0  0  0
   43.0029   13.8339   82.7179 C   0  0  0  0  0  0
   42.4416   12.5484   82.5567 C   0  0  0  0  0  0
   41.2498   12.1945   83.1814 C   0  0  0  0  0  0
   44.3361   14.1546   82.0251 C   0  0  0  0  0  0
   45.3843   13.0515   82.3158 C   0  0  0  0  0  0
   44.1053   14.2279   80.4983 C   0  0  0  0  0  0
   44.9357   15.4882   82.5360 C   0  0  0  0  0  0
   43.8915   16.5945   82.6221 C   0  0  0  0  0  0
   42.7597   16.2568   83.6244 C   0  0  0  0  0  0
   41.6113   17.2622   83.3578 C   0  0  0  0  0  0
   43.2614   16.4513   85.0738 C   0  0  0  0  0  0
   38.5853   15.0447   85.2061 C   0  0  0  0  0  0
   37.7343   16.0513   85.8873 C   0  0  0  0  0  0
   36.6604   15.6970   86.7262 C   0  0  0  0  0  0
   35.8822   16.6841   87.3390 C   0  0  0  0  0  0
   36.1562   18.0460   87.1258 C   0  0  0  0  0  0
   35.3369   19.1040   87.7662 C   0  0  0  0  0  0
   35.6693   20.3129   87.6419 O   0  0  0  0  0  0
   34.2058   18.8004   88.5232 O   0  0  0  0  0  0
   37.2105   18.3976   86.2662 C   0  0  0  0  0  0
   37.9884   17.4114   85.6540 C   0  0  0  0  0  0
   33.8822   17.8524   88.6644 H   0  0  0  0  0  0
  1  2  1  0  0  0
  2  3  2  0  0  0
  2  4  1  0  0  0
  4  5  2  0  0  0
  5  6  1  0  0  0
  6  7  2  0  0  0
  7  8  1  0  0  0
  8  9  2  0  0  0
  7 10  1  0  0  0
 10 11  1  0  0  0
 10 12  1  0  0  0
 10 13  1  0  0  0
 13 14  1  0  0  0
 14 15  1  0  0  0
 15 16  1  0  0  0
 15 17  1  0  0  0
  1 18  2  0  0  0
 18 19  1  0  0  0
 19 20  2  0  0  0
 20 21  1  0  0  0
 21 22  2  0  0  0
 22 23  1  0  0  0
 23 24  2  0  0  0
 23 25  1  0  0  0
 22 26  1  0  0  0
 26 27  2  0  0  0
  9  4  1  0  0  0
 27 19  1  0  0  0
 15  6  1  0  0  0
 25 28  1  0  0  0
M  END
>  <CHROM.0>
91.69384063,-56.14614433,69.00462727,-176.97650410,61.62220414,169.74491142
-51.93486407,73.52136613,69.36371630,60.39715678,-62.25671590,64.06623144
62.90731803

>  <CHROM.1>
-166.12449313,6.95251532,-3.12394437,174.43660194,-0.74797456,40.10127163
15.52158493,84.64470792,2.64205712,0.48206930,0.17561632

>  <RI>
3.63097e+07

>  <Rbt.Current_Directory>
/extra/banzai2/j5wagner/CELPP/2016_10_17_rdock_implementation/normal_run/tutorialVideo/tutorial_rdock_implementation/full_week_run/4-docking/1fcz/hiResHolo_1fcy_docking

>  <Rbt.Executable>
rbdock ($Id: //depot/dev/client3/rdock/2013.1/src/exe/rbdock.cxx#4 $)

>  <Rbt.Library>
libRbt.so (2013.1, Build901 2013/11/27)

>  <Rbt.Parameter_File>
/home/j5wagner/env_00/source/rDock/rDock_2013.1_src//data/scripts/dock.prm

>  <Rbt.Receptor>
/extra/banzai2/j5wagner/CELPP/2016_10_17_rdock_implementation/normal_run/tutorialVideo/tutorial_rdock_implementation/full_week_run/4-docking/1fcz/hiResHolo_1fcy_tech_prep/rDockGridGenInput.prm

>  <SCORE>
-52.8431

>  <SCORE.INTER>
-19.886

>  <SCORE.INTER.CONST>
1

>  <SCORE.INTER.POLAR>
-1.41912

>  <SCORE.INTER.REPUL>
0

>  <SCORE.INTER.ROT>
4

>  <SCORE.INTER.VDW>
-24.461

>  <SCORE.INTER.norm>
-0.736519

>  <SCORE.INTRA>
-3.40588

>  <SCORE.INTRA.DIHEDRAL>
-9.61846

>  <SCORE.INTRA.DIHEDRAL.0>
10.7811

>  <SCORE.INTRA.POLAR>
0

>  <SCORE.INTRA.POLAR.0>
0

>  <SCORE.INTRA.REPUL>
0

>  <SCORE.INTRA.REPUL.0>
0

>  <SCORE.INTRA.VDW>
1.40335

>  <SCORE.INTRA.VDW.0>
-0.812999

>  <SCORE.INTRA.norm>
-0.126144

>  <SCORE.RESTR>
0

>  <SCORE.RESTR.CAVITY>
0

>  <SCORE.RESTR.norm>
0

>  <SCORE.SYSTEM>
-29.5512

>  <SCORE.SYSTEM.CONST>
0

>  <SCORE.SYSTEM.DIHEDRAL>
4.45103

>  <SCORE.SYSTEM.POLAR>
-8.06492

>  <SCORE.SYSTEM.VDW>
-4.35604

>  <SCORE.SYSTEM.norm>
-1.09449

>  <SCORE.heavy>
27

>  <SCORE.norm>
-1.95715

$$$$

  rDOCK(R)          3D
libRbt.so/2013.1/901 2013/11/27
 28 30  0  0  0  0  0  0  0  0999 V2000
   39.3827   14.8525   85.1507 C   0  0  0  0  0  0
   40.4042   13.9030   84.6605 C   0  0  0  0  0  0
   40.2275   12.6752   84.8840 O   0  0  0  0  0  0
   41.6273   14.3310   83.9389 C   0  0  0  0  0  0
   42.0531   13.6294   82.8049 C   0  0  0  0  0  0
   43.2319   13.9866   82.1103 C   0  0  0  0  0  0
   43.9520   15.1436   82.5361 C   0  0  0  0  0  0
   43.5405   15.7959   83.7188 C   0  0  0  0  0  0
   42.4006   15.3949   84.4085 C   0  0  0  0  0  0
   45.2037   15.6517   81.8044 C   0  0  0  0  0  0
   45.1320   17.1852   81.5957 C   0  0  0  0  0  0
   46.4519   15.3260   82.6563 C   0  0  0  0  0  0
   45.3388   15.0142   80.3994 C   0  0  0  0  0  0
   45.0849   13.5120   80.4209 C   0  0  0  0  0  0
   43.6458   13.1663   80.8784 C   0  0  0  0  0  0
   43.6298   11.6502   81.1976 C   0  0  0  0  0  0
   42.6459   13.4413   79.7318 C   0  0  0  0  0  0
   38.4357   14.5060   86.0353 C   0  0  0  0  0  0
   37.4018   15.4384   86.5482 C   0  0  0  0  0  0
   37.2939   16.7715   86.1079 C   0  0  0  0  0  0
   36.3067   17.6138   86.6289 C   0  0  0  0  0  0
   35.4076   17.1458   87.6025 C   0  0  0  0  0  0
   34.3578   18.0289   88.1668 C   0  0  0  0  0  0
   34.1421   19.1554   87.6455 O   0  0  0  0  0  0
   33.6027   17.6557   89.2783 O   0  0  0  0  0  0
   35.5346   15.8237   88.0610 C   0  0  0  0  0  0
   36.5209   14.9818   87.5404 C   0  0  0  0  0  0
   33.6901   16.7484   89.7174 H   0  0  0  0  0  0
  1  2  1  0  0  0
  2  3  2  0  0  0
  2  4  1  0  0  0
  4  5  2  0  0  0
  5  6  1  0  0  0
  6  7  2  0  0  0
  7  8  1  0  0  0
  8  9  2  0  0  0
  7 10  1  0  0  0
 10 11  1  0  0  0
 10 12  1  0  0  0
 10 13  1  0  0  0
 13 14  1  0  0  0
 14 15  1  0  0  0
 15 16  1  0  0  0
 15 17  1  0  0  0
  1 18  2  0  0  0
 18 19  1  0  0  0
 19 20  2  0  0  0
 20 21  1  0  0  0
 21 22  2  0  0  0
 22 23  1  0  0  0
 23 24  2  0  0  0
 23 25  1  0  0  0
 22 26  1  0  0  0
 26 27  2  0  0  0
  9  4  1  0  0  0
 27 19  1  0  0  0
 15  6  1  0  0  0
 25 28  1  0  0  0
M  END
>  <CHROM.0>
-145.85342622,-56.44178174,67.85556254,-59.07088511,61.16170915,171.02708583
-177.92174090,174.47462023,70.04925692,60.28217194,-60.73817594,64.32922455
178.47034288

>  <CHROM.1>
13.65196234,-136.66129582,2.42387276,9.81158532,-3.94783010,40.46266519,15.26285075
84.31590338,2.77542862,0.54023556,0.22860070

>  <RI>
3.63097e+07

>  <Rbt.Current_Directory>
/extra/banzai2/j5wagner/CELPP/2016_10_17_rdock_implementation/normal_run/tutorialVideo/tutorial_rdock_implementation/full_week_run/4-docking/1fcz/hiResHolo_1fcy_docking

>  <Rbt.Executable>
rbdock ($Id: //depot/dev/client3/rdock/2013.1/src/exe/rbdock.cxx#4 $)

>  <Rbt.Library>
libRbt.so (2013.1, Build901 2013/11/27)

>  <Rbt.Parameter_File>
/home/j5wagner/env_00/source/rDock/rDock_2013.1_src//data/scripts/dock.prm

>  <Rbt.Receptor>
/extra/banzai2/j5wagner/CELPP/2016_10_17_rdock_implementation/normal_run/tutorialVideo/tutorial_rdock_implementation/full_week_run/4-docking/1fcz/hiResHolo_1fcy_tech_prep/rDockGridGenInput.prm

>  <SCORE>
-52.4439

>  <SCORE.INTER>
-27.3805

>  <SCORE.INTER.CONST>
1

>  <SCORE.INTER.POLAR>
-1.55194

>  <SCORE.INTER.REPUL>
0.0482261

>  <SCORE.INTER.ROT>
4

>  <SCORE.INTER.VDW>
-31.745

>  <SCORE.INTER.norm>
-1.01409

>  <SCORE.INTRA>
-1.21051

>  <SCORE.INTRA.DIHEDRAL>
-3.17569

>  <SCORE.INTRA.DIHEDRAL.0>
10.7811

>  <SCORE.INTRA.POLAR>
0

>  <SCORE.INTRA.POLAR.0>
0

>  <SCORE.INTRA.REPUL>
0

>  <SCORE.INTRA.REPUL.0>
0

>  <SCORE.INTRA.VDW>
0.377328

>  <SCORE.INTRA.VDW.0>
-0.812999

>  <SCORE.INTRA.norm>
-0.0448339

>  <SCORE.RESTR>
0

>  <SCORE.RESTR.CAVITY>
0

>  <SCORE.RESTR.norm>
0

>  <SCORE.SYSTEM>
-23.8529

>  <SCORE.SYSTEM.CONST>
0

>  <SCORE.SYSTEM.DIHEDRAL>
3.51995

>  <SCORE.SYSTEM.POLAR>
-6.77475

>  <SCORE.SYSTEM.REPUL>
0.192513

>  <SCORE.SYSTEM.VDW>
-3.54131

>  <SCORE.SYSTEM.norm>
-0.883442

>  <SCORE.heavy>
27

>  <SCORE.norm>
-1.94237

$$$$

  rDOCK(R)          3D
libRbt.so/2013.1/901 2013/11/27
 28 30  0  0  0  0  0  0  0  0999 V2000
   39.0925   15.1611   84.7796 C   0  0  0  0  0  0
   39.9831   14.1560   84.1616 C   0  0  0  0  0  0
   39.6139   12.9510   84.1722 O   0  0  0  0  0  0
   41.2903   14.4994   83.5508 C   0  0  0  0  0  0
   41.7829   13.7442   82.4799 C   0  0  0  0  0  0
   43.0398   14.0200   81.8934 C   0  0  0  0  0  0
   43.7778   15.1501   82.3586 C   0  0  0  0  0  0
   43.2922   15.8568   83.4804 C   0  0  0  0  0  0
   42.0721   15.5352   84.0669 C   0  0  0  0  0  0
   45.1188   15.5717   81.7387 C   0  0  0  0  0  0
   45.1503   17.1001   81.4875 C   0  0  0  0  0  0
   46.2613   15.2069   82.7140 C   0  0  0  0  0  0
   45.3516   14.8877   80.3687 C   0  0  0  0  0  0
   45.0159   13.4018   80.4015 C   0  0  0  0  0  0
   43.5234   13.1441   80.7269 C   0  0  0  0  0  0
   43.3953   11.6407   81.0792 C   0  0  0  0  0  0
   42.6528   13.4371   79.4834 C   0  0  0  0  0  0
   38.0765   14.8291   85.5900 C   0  0  0  0  0  0
   37.1703   15.8158   86.2278 C   0  0  0  0  0  0
   37.2948   17.2039   86.0268 C   0  0  0  0  0  0
   36.4204   18.0941   86.6580 C   0  0  0  0  0  0
   35.4049   17.6195   87.5058 C   0  0  0  0  0  0
   34.4725   18.5522   88.1849 C   0  0  0  0  0  0
   33.5320   18.0946   88.8874 O   0  0  0  0  0  0
   34.5943   19.9355   88.0576 O   0  0  0  0  0  0
   35.2999   16.2360   87.7272 C   0  0  0  0  0  0
   36.1734   15.3462   87.0964 C   0  0  0  0  0  0
   35.3286   20.3708   87.5146 H   0  0  0  0  0  0
  1  2  1  0  0  0
  2  3  2  0  0  0
  2  4  1  0  0  0
  4  5  2  0  0  0
  5  6  1  0  0  0
  6  7  2  0  0  0
  7  8  1  0  0  0
  8  9  2  0  0  0
  7 10  1  0  0  0
 10 11  1  0  0  0
 10 12  1  0  0  0
 10 13  1  0  0  0
 13 14  1  0  0  0
 14 15  1  0  0  0
 15 16  1  0  0  0
 15 17  1  0  0  0
  1 18  2  0  0  0
 18 19  1  0  0  0
 19 20  2  0  0  0
 20 21  1  0  0  0
 21 22  2  0  0  0
 22 23  1  0  0  0
 23 24  2  0  0  0
 23 25  1  0  0  0
 22 26  1  0  0  0
 26 27  2  0  0  0
  9  4  1  0  0  0
 27 19  1  0  0  0
 15  6  1  0  0  0
 25 28  1  0  0  0
M  END
>  <CHROM.0>
-142.66674006,-58.30761552,70.17789711,57.22947865,-59.92881139,172.62470158
-50.30323652,64.89369819,159.14312190,62.73943922,-63.75180006,-51.80110226
59.86577000

>  <CHROM.1>
14.85236086,-149.56298921,0.47130278,176.57549847,-1.16745880,40.31958741
15.47286905,84.10553522,2.65197456,0.47518860,0.37167355

>  <RI>
3.63097e+07

>  <Rbt.Current_Directory>
/extra/banzai2/j5wagner/CELPP/2016_10_17_rdock_implementation/normal_run/tutorialVideo/tutorial_rdock_implementation/full_week_run/4-docking/1fcz/hiResHolo_1fcy_docking

>  <Rbt.Executable>
rbdock ($Id: //depot/dev/client3/rdock/2013.1/src/exe/rbdock.cxx#4 $)

>  <Rbt.Library>
libRbt.so (2013.1, Build901 2013/11/27)

>  <Rbt.Parameter_File>
/home/j5wagner/env_00/source/rDock/rDock_2013.1_src//data/scripts/dock.prm

>  <Rbt.Receptor>
/extra/banzai2/j5wagner/CELPP/2016_10_17_rdock_implementation/normal_run/tutorialVideo/tutorial_rdock_implementation/full_week_run/4-docking/1fcz/hiResHolo_1fcy_tech_prep/rDockGridGenInput.prm

>  <SCORE>
-52.4353

>  <SCORE.INTER>
-30.9414

>  <SCORE.INTER.CONST>
1

>  <SCORE.INTER.POLAR>
-2.51067

>  <SCORE.INTER.REPUL>
0

>  <SCORE.INTER.ROT>
4

>  <SCORE.INTER.VDW>
-31.8051

>  <SCORE.INTER.norm>
-1.14598

>  <SCORE.INTRA>
-2.5529

>  <SCORE.INTRA.DIHEDRAL>
-6.2623

>  <SCORE.INTRA.DIHEDRAL.0>
10.7811

>  <SCORE.INTRA.POLAR>
0

>  <SCORE.INTRA.POLAR.0>
0

>  <SCORE.INTRA.REPUL>
0

>  <SCORE.INTRA.REPUL.0>
0

>  <SCORE.INTRA.VDW>
0.578249

>  <SCORE.INTRA.VDW.0>
-0.812999

>  <SCORE.INTRA.norm>
-0.094552

>  <SCORE.RESTR>
0

>  <SCORE.RESTR.CAVITY>
0

>  <SCORE.RESTR.norm>
0

>  <SCORE.SYSTEM>
-18.9411

>  <SCORE.SYSTEM.CONST>
0

>  <SCORE.SYSTEM.DIHEDRAL>
6.09449

>  <SCORE.SYSTEM.POLAR>
-5.82946

>  <SCORE.SYSTEM.VDW>
-2.16812

>  <SCORE.SYSTEM.norm>
-0.701521

>  <SCORE.heavy>
27

>  <SCORE.norm>
-1.94205

$$$$

  rDOCK(R)          3D
libRbt.so/2013.1/901 2013/11/27
 28 30  0  0  0  0  0  0  0  0999 V2000
   39.8533   15.8943   85.4236 C   0  0  0  0  0  0
   41.2588   15.8779   84.9658 C   0  0  0  0  0  0
   42.0883   16.6072   85.5732 O   0  0  0  0  0  0
   41.7276   15.0607   83.8203 C   0  0  0  0  0  0
   43.0294   15.2216   83.3314 C   0  0  0  0  0  0
   43.5013   14.4851   82.2203 C   0  0  0  0  0  0
   42.6479   13.4965   81.6434 C   0  0  0  0  0  0
   41.3193   13.3975   82.1110 C   0  0  0  0  0  0
   40.8673   14.1676   83.1780 C   0  0  0  0  0  0
   43.0947   12.5985   80.4797 C   0  0  0  0  0  0
   42.7097   11.1220   80.7475 C   0  0  0  0  0  0
   42.3922   13.0660   79.1844 C   0  0  0  0  0  0
   44.6318   12.6338   80.2924 C   0  0  0  0  0  0
   45.1880   14.0509   80.3550 C   0  0  0  0  0  0
   44.9389   14.7192   81.7302 C   0  0  0  0  0  0
   45.2178   16.2325   81.5494 C   0  0  0  0  0  0
   45.9257   14.1557   82.7785 C   0  0  0  0  0  0
   39.3489   16.8794   86.1815 C   0  0  0  0  0  0
   37.9422   16.9246   86.6510 C   0  0  0  0  0  0
   37.0442   15.8558   86.4671 C   0  0  0  0  0  0
   35.7248   15.9507   86.9206 C   0  0  0  0  0  0
   35.2715   17.1148   87.5645 C   0  0  0  0  0  0
   33.8737   17.2310   88.0475 C   0  0  0  0  0  0
   33.0292   16.3497   87.7352 O   0  0  0  0  0  0
   33.4543   18.3045   88.8325 O   0  0  0  0  0  0
   36.1610   18.1909   87.7221 C   0  0  0  0  0  0
   37.4795   18.0962   87.2692 C   0  0  0  0  0  0
   34.0739   19.0568   89.1040 H   0  0  0  0  0  0
  1  2  1  0  0  0
  2  3  2  0  0  0
  2  4  1  0  0  0
  4  5  2  0  0  0
  5  6  1  0  0  0
  6  7  2  0  0  0
  7  8  1  0  0  0
  8  9  2  0  0  0
  7 10  1  0  0  0
 10 11  1  0  0  0
 10 12  1  0  0  0
 10 13  1  0  0  0
 13 14  1  0  0  0
 14 15  1  0  0  0
 15 16  1  0  0  0
 15 17  1  0  0  0
  1 18  2  0  0  0
 18 19  1  0  0  0
 19 20  2  0  0  0
 20 21  1  0  0  0
 21 22  2  0  0  0
 22 23  1  0  0  0
 23 24  2  0  0  0
 23 25  1  0  0  0
 22 26  1  0  0  0
 26 27  2  0  0  0
  9  4  1  0  0  0
 27 19  1  0  0  0
 15  6  1  0  0  0
 25 28  1  0  0  0
M  END
>  <CHROM.0>
-144.95004399,56.49655378,72.03368812,-51.32098427,-56.66964895,50.06422326
-53.76481170,177.18109885,65.09061822,62.33830697,-65.40848165,61.18852067
-59.95486963

>  <CHROM.1>
18.57723979,171.74407374,7.37130137,-8.93311269,0.54828237,40.34451985,15.32835362
84.18023920,-2.48118304,-0.24140165,-2.37060753

>  <RI>
3.63097e+07

>  <Rbt.Current_Directory>
/extra/banzai2/j5wagner/CELPP/2016_10_17_rdock_implementation/normal_run/tutorialVideo/tutorial_rdock_implementation/full_week_run/4-docking/1fcz/hiResHolo_1fcy_docking

>  <Rbt.Executable>
rbdock ($Id: //depot/dev/client3/rdock/2013.1/src/exe/rbdock.cxx#4 $)

>  <Rbt.Library>
libRbt.so (2013.1, Build901 2013/11/27)

>  <Rbt.Parameter_File>
/home/j5wagner/env_00/source/rDock/rDock_2013.1_src//data/scripts/dock.prm

>  <Rbt.Receptor>
/extra/banzai2/j5wagner/CELPP/2016_10_17_rdock_implementation/normal_run/tutorialVideo/tutorial_rdock_implementation/full_week_run/4-docking/1fcz/hiResHolo_1fcy_tech_prep/rDockGridGenInput.prm

>  <SCORE>
-52.0757

>  <SCORE.INTER>
-24.1982

>  <SCORE.INTER.CONST>
1

>  <SCORE.INTER.POLAR>
-1.12448

>  <SCORE.INTER.REPUL>
0

>  <SCORE.INTER.ROT>
4

>  <SCORE.INTER.VDW>
-29.775

>  <SCORE.INTER.norm>
-0.896231

>  <SCORE.INTRA>
-3.60613

>  <SCORE.INTRA.DIHEDRAL>
-8.79626

>  <SCORE.INTRA.DIHEDRAL.0>
10.7811

>  <SCORE.INTRA.POLAR>
0

>  <SCORE.INTRA.POLAR.0>
0

>  <SCORE.INTRA.REPUL>
0

>  <SCORE.INTRA.REPUL.0>
0

>  <SCORE.INTRA.VDW>
0.792001

>  <SCORE.INTRA.VDW.0>
-0.812999

>  <SCORE.INTRA.norm>
-0.13356

>  <SCORE.RESTR>
0

>  <SCORE.RESTR.CAVITY>
0

>  <SCORE.RESTR.norm>
0

>  <SCORE.SYSTEM>
-24.2713

>  <SCORE.SYSTEM.CONST>
0

>  <SCORE.SYSTEM.DIHEDRAL>
4.01399

>  <SCORE.SYSTEM.POLAR>
-6.47736

>  <SCORE.SYSTEM.VDW>
-4.25527

>  <SCORE.SYSTEM.norm>
-0.898937

>  <SCORE.heavy>
27

>  <SCORE.norm>
-1.92873

$$$$

  rDOCK(R)          3D
libRbt.so/2013.1/901 2013/11/27
 28 30  0  0  0  0  0  0  0  0999 V2000
   39.0438   15.3316   84.8253 C   0  0  0  0  0  0
   39.8557   14.3343   84.0963 C   0  0  0  0  0  0
   39.3938   13.1678   83.9764 O   0  0  0  0  0  0
   41.1879   14.6400   83.5205 C   0  0  0  0  0  0
   41.6853   13.8733   82.4600 C   0  0  0  0  0  0
   42.9645   14.1128   81.9070 C   0  0  0  0  0  0
   43.7237   15.2191   82.3949 C   0  0  0  0  0  0
   43.2306   15.9370   83.5063 C   0  0  0  0  0  0
   41.9868   15.6505   84.0601 C   0  0  0  0  0  0
   45.0923   15.6020   81.8111 C   0  0  0  0  0  0
   45.1758   17.1295   81.5660 C   0  0  0  0  0  0
   46.1978   15.2005   82.8142 C   0  0  0  0  0  0
   45.3398   14.9150   80.4452 C   0  0  0  0  0  0
   44.9591   13.4397   80.4643 C   0  0  0  0  0  0
   43.4517   13.2260   80.7503 C   0  0  0  0  0  0
   43.2697   11.7262   81.0940 C   0  0  0  0  0  0
   42.6226   13.5482   79.4858 C   0  0  0  0  0  0
   37.9333   15.0064   85.5038 C   0  0  0  0  0  0
   37.1022   15.9846   86.2481 C   0  0  0  0  0  0
   37.4040   17.3591   86.2952 C   0  0  0  0  0  0
   36.5935   18.2398   87.0183 C   0  0  0  0  0  0
   35.4662   17.7684   87.7126 C   0  0  0  0  0  0
   34.5995   18.6904   88.4868 C   0  0  0  0  0  0
   33.5204   18.2670   88.9804 O   0  0  0  0  0  0
   34.9359   20.0304   88.6757 O   0  0  0  0  0  0
   35.1826   16.3925   87.6875 C   0  0  0  0  0  0
   35.9922   15.5122   86.9649 C   0  0  0  0  0  0
   34.3534   20.6704   89.1998 H   0  0  0  0  0  0
  1  2  1  0  0  0
  2  3  2  0  0  0
  2  4  1  0  0  0
  4  5  2  0  0  0
  5  6  1  0  0  0
  6  7  2  0  0  0
  7  8  1  0  0  0
  8  9  2  0  0  0
  7 10  1  0  0  0
 10 11  1  0  0  0
 10 12  1  0  0  0
 10 13  1  0  0  0
 13 14  1  0  0  0
 14 15  1  0  0  0
 15 16  1  0  0  0
 15 17  1  0  0  0
  1 18  2  0  0  0
 18 19  1  0  0  0
 19 20  2  0  0  0
 20 21  1  0  0  0
 21 22  2  0  0  0
 22 23  1  0  0  0
 23 24  2  0  0  0
 23 25  1  0  0  0
 22 26  1  0  0  0
 26 27  2  0  0  0
  9  4  1  0  0  0
 27 19  1  0  0  0
 15  6  1  0  0  0
 25 28  1  0  0  0
M  END
>  <CHROM.0>
-27.80978664,-178.43021591,176.15487793,-55.59012652,61.31067385,171.11818350
-58.39896959,-177.29053438,69.45734464,60.67563624,-62.65672866,63.30331574
-59.08878255

>  <CHROM.1>
8.83728031,-156.45504382,0.68499825,172.48503415,179.88739174,40.28360221
15.58800136,84.18062034,2.59179401,0.43853905,0.47506876

>  <RI>
3.63097e+07

>  <Rbt.Current_Directory>
/extra/banzai2/j5wagner/CELPP/2016_10_17_rdock_implementation/normal_run/tutorialVideo/tutorial_rdock_implementation/full_week_run/4-docking/1fcz/hiResHolo_1fcy_docking

>  <Rbt.Executable>
rbdock ($Id: //depot/dev/client3/rdock/2013.1/src/exe/rbdock.cxx#4 $)

>  <Rbt.Library>
libRbt.so (2013.1, Build901 2013/11/27)

>  <Rbt.Parameter_File>
/home/j5wagner/env_00/source/rDock/rDock_2013.1_src//data/scripts/dock.prm

>  <Rbt.Receptor>
/extra/banzai2/j5wagner/CELPP/2016_10_17_rdock_implementation/normal_run/tutorialVideo/tutorial_rdock_implementation/full_week_run/4-docking/1fcz/hiResHolo_1fcy_tech_prep/rDockGridGenInput.prm

>  <SCORE>
-51.5358

>  <SCORE.INTER>
-24.3884

>  <SCORE.INTER.CONST>
1

>  <SCORE.INTER.POLAR>
-0.910395

>  <SCORE.INTER.REPUL>
0

>  <SCORE.INTER.ROT>
4

>  <SCORE.INTER.VDW>
-30.6931

>  <SCORE.INTER.norm>
-0.903274

>  <SCORE.INTRA>
-3.23527

>  <SCORE.INTRA.DIHEDRAL>
-7.87297

>  <SCORE.INTRA.DIHEDRAL.0>
10.7811

>  <SCORE.INTRA.POLAR>
0

>  <SCORE.INTRA.POLAR.0>
0

>  <SCORE.INTRA.REPUL>
0

>  <SCORE.INTRA.REPUL.0>
0

>  <SCORE.INTRA.VDW>
0.701218

>  <SCORE.INTRA.VDW.0>
-0.812999

>  <SCORE.INTRA.norm>
-0.119825

>  <SCORE.RESTR>
0

>  <SCORE.RESTR.CAVITY>
0

>  <SCORE.RESTR.norm>
0

>  <SCORE.SYSTEM>
-23.9121

>  <SCORE.SYSTEM.CONST>
0

>  <SCORE.SYSTEM.DIHEDRAL>
2.91837

>  <SCORE.SYSTEM.POLAR>
-6.4994

>  <SCORE.SYSTEM.VDW>
-3.27335

>  <SCORE.SYSTEM.norm>
-0.885634

>  <SCORE.heavy>
27

>  <SCORE.norm>
-1.90873

$$$$

  rDOCK(R)          3D
libRbt.so/2013.1/901 2013/11/27
 28 30  0  0  0  0  0  0  0  0999 V2000
   38.4528   13.9628   85.5287 C   0  0  0  0  0  0
   39.4459   13.1861   84.7568 C   0  0  0  0  0  0
   39.3115   11.9338   84.7094 O   0  0  0  0  0  0
   40.5946   13.8104   84.0565 C   0  0  0  0  0  0
   41.0400   13.2867   82.8370 C   0  0  0  0  0  0
   42.1525   13.8336   82.1565 C   0  0  0  0  0  0
   42.7771   14.9994   82.6942 C   0  0  0  0  0  0
   42.3525   15.4701   83.9559 C   0  0  0  0  0  0
   41.2827   14.8843   84.6254 C   0  0  0  0  0  0
   43.9465   15.7067   81.9925 C   0  0  0  0  0  0
   43.7236   17.2397   81.9661 C   0  0  0  0  0  0
   45.2517   15.4096   82.7657 C   0  0  0  0  0  0
   44.0861   15.2490   80.5195 C   0  0  0  0  0  0
   43.9749   13.7364   80.3726 C   0  0  0  0  0  0
   42.5933   13.2025   80.8263 C   0  0  0  0  0  0
   42.7316   11.6657   80.9668 C   0  0  0  0  0  0
   41.5284   13.5072   79.7478 C   0  0  0  0  0  0
   38.4426   15.3039   85.5550 C   0  0  0  0  0  0
   37.4558   16.1091   86.3161 C   0  0  0  0  0  0
   36.3577   15.5338   86.9839 C   0  0  0  0  0  0
   35.4500   16.3373   87.6810 C   0  0  0  0  0  0
   35.6160   17.7322   87.7247 C   0  0  0  0  0  0
   34.6591   18.5974   88.4571 C   0  0  0  0  0  0
   33.5948   18.1034   88.9159 O   0  0  0  0  0  0
   34.8939   19.9592   88.6438 O   0  0  0  0  0  0
   36.6965   18.3070   87.0345 C   0  0  0  0  0  0
   37.6038   17.5043   86.3380 C   0  0  0  0  0  0
   34.2687   20.5531   89.1728 H   0  0  0  0  0  0
  1  2  1  0  0  0
  2  3  2  0  0  0
  2  4  1  0  0  0
  4  5  2  0  0  0
  5  6  1  0  0  0
  6  7  2  0  0  0
  7  8  1  0  0  0
  8  9  2  0  0  0
  7 10  1  0  0  0
 10 11  1  0  0  0
 10 12  1  0  0  0
 10 13  1  0  0  0
 13 14  1  0  0  0
 14 15  1  0  0  0
 15 16  1  0  0  0
 15 17  1  0  0  0
  1 18  2  0  0  0
 18 19  1  0  0  0
 19 20  2  0  0  0
 20 21  1  0  0  0
 21 22  2  0  0  0
 22 23  1  0  0  0
 23 24  2  0  0  0
 23 25  1  0  0  0
 22 26  1  0  0  0
 26 27  2  0  0  0
  9  4  1  0  0  0
 27 19  1  0  0  0
 15  6  1  0  0  0
 25 28  1  0  0  0
M  END
>  <CHROM.0>
-29.41711599,-58.06519062,68.47582725,-52.28853703,-59.53815999,-67.84956657
-53.44518821,64.98168284,162.40016285,59.45745603,175.67147180,170.48147149
60.39674157

>  <CHROM.1>
-174.54756995,-144.69357382,-6.13263375,-8.49134186,-177.47151198,39.83876517
15.37933418,84.37584757,2.62488775,0.58062709,0.28606601

>  <RI>
3.63097e+07

>  <Rbt.Current_Directory>
/extra/banzai2/j5wagner/CELPP/2016_10_17_rdock_implementation/normal_run/tutorialVideo/tutorial_rdock_implementation/full_week_run/4-docking/1fcz/hiResHolo_1fcy_docking

>  <Rbt.Executable>
rbdock ($Id: //depot/dev/client3/rdock/2013.1/src/exe/rbdock.cxx#4 $)

>  <Rbt.Library>
libRbt.so (2013.1, Build901 2013/11/27)

>  <Rbt.Parameter_File>
/home/j5wagner/env_00/source/rDock/rDock_2013.1_src//data/scripts/dock.prm

>  <Rbt.Receptor>
/extra/banzai2/j5wagner/CELPP/2016_10_17_rdock_implementation/normal_run/tutorialVideo/tutorial_rdock_implementation/full_week_run/4-docking/1fcz/hiResHolo_1fcy_tech_prep/rDockGridGenInput.prm

>  <SCORE>
-50.6359

>  <SCORE.INTER>
-28.5919

>  <SCORE.INTER.CONST>
1

>  <SCORE.INTER.POLAR>
-1.56479

>  <SCORE.INTER.REPUL>
0

>  <SCORE.INTER.ROT>
4

>  <SCORE.INTER.VDW>
-32.6716

>  <SCORE.INTER.norm>
-1.05896

>  <SCORE.INTRA>
-2.24626

>  <SCORE.INTRA.DIHEDRAL>
-5.52035

>  <SCORE.INTRA.DIHEDRAL.0>
10.7811

>  <SCORE.INTRA.POLAR>
0

>  <SCORE.INTRA.POLAR.0>
0

>  <SCORE.INTRA.REPUL>
0

>  <SCORE.INTRA.REPUL.0>
0

>  <SCORE.INTRA.VDW>
0.513913

>  <SCORE.INTRA.VDW.0>
-0.812999

>  <SCORE.INTRA.norm>
-0.0831949

>  <SCORE.RESTR>
0

>  <SCORE.RESTR.CAVITY>
0

>  <SCORE.RESTR.norm>
0

>  <SCORE.SYSTEM>
-19.7977

>  <SCORE.SYSTEM.CONST>
0

>  <SCORE.SYSTEM.DIHEDRAL>
4.81303

>  <SCORE.SYSTEM.POLAR>
-6.2944

>  <SCORE.SYSTEM.VDW>
-0.803289

>  <SCORE.SYSTEM.norm>
-0.73325

>  <SCORE.heavy>
27

>  <SCORE.norm>
-1.8754

$$$$

  rDOCK(R)          3D
libRbt.so/2013.1/901 2013/11/27
 28 30  0  0  0  0  0  0  0  0999 V2000
   39.2188   15.2636   84.6949 C   0  0  0  0  0  0
   40.0868   14.2481   84.0619 C   0  0  0  0  0  0
   39.6955   13.0500   84.0639 O   0  0  0  0  0  0
   41.3961   14.5731   83.4456 C   0  0  0  0  0  0
   41.8952   13.7827   82.4035 C   0  0  0  0  0  0
   43.1542   14.0408   81.8137 C   0  0  0  0  0  0
   43.8879   15.1877   82.2432 C   0  0  0  0  0  0
   43.3957   15.9313   83.3380 C   0  0  0  0  0  0
   42.1736   15.6274   83.9295 C   0  0  0  0  0  0
   45.2310   15.5905   81.6154 C   0  0  0  0  0  0
   45.2607   17.1095   81.3121 C   0  0  0  0  0  0
   46.3696   15.2616   82.6078 C   0  0  0  0  0  0
   45.4714   14.8605   80.2707 C   0  0  0  0  0  0
   45.1384   13.3759   80.3529 C   0  0  0  0  0  0
   43.6448   13.1264   80.6800 C   0  0  0  0  0  0
   43.5180   11.6358   81.0830 C   0  0  0  0  0  0
   42.7795   13.3749   79.4232 C   0  0  0  0  0  0
   38.1470   14.9420   85.4345 C   0  0  0  0  0  0
   37.2615   15.9389   86.0854 C   0  0  0  0  0  0
   37.4709   17.3272   85.9779 C   0  0  0  0  0  0
   36.6123   18.2266   86.6179 C   0  0  0  0  0  0
   35.5282   17.7608   87.3814 C   0  0  0  0  0  0
   34.6115   18.7030   88.0688 C   0  0  0  0  0  0
   34.7944   19.9447   87.9596 O   0  0  0  0  0  0
   33.5500   18.2544   88.8541 O   0  0  0  0  0  0
   35.3374   16.3748   87.5105 C   0  0  0  0  0  0
   36.1951   15.4759   86.8710 C   0  0  0  0  0  0
   33.3749   17.2728   89.0254 H   0  0  0  0  0  0
  1  2  1  0  0  0
  2  3  2  0  0  0
  2  4  1  0  0  0
  4  5  2  0  0  0
  5  6  1  0  0  0
  6  7  2  0  0  0
  7  8  1  0  0  0
  8  9  2  0  0  0
  7 10  1  0  0  0
 10 11  1  0  0  0
 10 12  1  0  0  0
 10 13  1  0  0  0
 13 14  1  0  0  0
 14 15  1  0  0  0
 15 16  1  0  0  0
 15 17  1  0  0  0
  1 18  2  0  0  0
 18 19  1  0  0  0
 19 20  2  0  0  0
 20 21  1  0  0  0
 21 22  2  0  0  0
 22 23  1  0  0  0
 23 24  2  0  0  0
 23 25  1  0  0  0
 22 26  1  0  0  0
 26 27  2  0  0  0
  9  4  1  0  0  0
 27 19  1  0  0  0
 15  6  1  0  0  0
 25 28  1  0  0  0
M  END
>  <CHROM.0>
-29.62107127,-57.26119784,175.76635122,-177.02539974,-57.61136006,-68.52806101
-52.37985038,69.29120363,-53.68716790,-52.04065304,-61.23055501,62.97388090
62.16228974

>  <CHROM.1>
10.15056676,-152.38500587,0.19160112,0.70938440,2.59707542,40.42380747,15.52906391
84.00738403,2.64351242,0.46689050,0.38007705

>  <RI>
3.63097e+07

>  <Rbt.Current_Directory>
/extra/banzai2/j5wagner/CELPP/2016_10_17_rdock_implementation/normal_run/tutorialVideo/tutorial_rdock_implementation/full_week_run/4-docking/1fcz/hiResHolo_1fcy_docking

>  <Rbt.Executable>
rbdock ($Id: //depot/dev/client3/rdock/2013.1/src/exe/rbdock.cxx#4 $)

>  <Rbt.Library>
libRbt.so (2013.1, Build901 2013/11/27)

>  <Rbt.Parameter_File>
/home/j5wagner/env_00/source/rDock/rDock_2013.1_src//data/scripts/dock.prm

>  <Rbt.Receptor>
/extra/banzai2/j5wagner/CELPP/2016_10_17_rdock_implementation/normal_run/tutorialVideo/tutorial_rdock_implementation/full_week_run/4-docking/1fcz/hiResHolo_1fcy_tech_prep/rDockGridGenInput.prm

>  <SCORE>
-49.481

>  <SCORE.INTER>
-27.7803

>  <SCORE.INTER.CONST>
1

>  <SCORE.INTER.POLAR>
-1.78055

>  <SCORE.INTER.REPUL>
0

>  <SCORE.INTER.ROT>
4

>  <SCORE.INTER.VDW>
-31.1264

>  <SCORE.INTER.norm>
-1.0289

>  <SCORE.INTRA>
-2.97194

>  <SCORE.INTRA.DIHEDRAL>
-7.22173

>  <SCORE.INTRA.DIHEDRAL.0>
10.7811

>  <SCORE.INTRA.POLAR>
0

>  <SCORE.INTRA.POLAR.0>
0

>  <SCORE.INTRA.REPUL>
0

>  <SCORE.INTRA.REPUL.0>
0

>  <SCORE.INTRA.VDW>
0.638921

>  <SCORE.INTRA.VDW.0>
-0.812999

>  <SCORE.INTRA.norm>
-0.110072

>  <SCORE.RESTR>
0

>  <SCORE.RESTR.CAVITY>
0

>  <SCORE.RESTR.norm>
0

>  <SCORE.SYSTEM>
-18.7287

>  <SCORE.SYSTEM.CONST>
0

>  <SCORE.SYSTEM.DIHEDRAL>
3.44955

>  <SCORE.SYSTEM.POLAR>
-6.08876

>  <SCORE.SYSTEM.REPUL>
0.180134

>  <SCORE.SYSTEM.VDW>
-0.652395

>  <SCORE.SYSTEM.norm>
-0.693657

>  <SCORE.heavy>
27

>  <SCORE.norm>
-1.83263

$$$$

  rDOCK(R)          3D
libRbt.so/2013.1/901 2013/11/27
 28 30  0  0  0  0  0  0  0  0999 V2000
   38.3971   13.9839   85.4308 C   0  0  0  0  0  0
   39.3806   13.2152   84.6389 C   0  0  0  0  0  0
   39.2212   11.9685   84.5452 O   0  0  0  0  0  0
   40.5476   13.8404   83.9704 C   0  0  0  0  0  0
   41.0309   13.3131   82.7670 C   0  0  0  0  0  0
   42.1613   13.8609   82.1176 C   0  0  0  0  0  0
   42.7657   15.0311   82.6686 C   0  0  0  0  0  0
   42.3021   15.5058   83.9149 C   0  0  0  0  0  0
   41.2148   14.9192   84.5548 C   0  0  0  0  0  0
   43.9532   15.7395   81.9989 C   0  0  0  0  0  0
   43.7261   17.2716   81.9592 C   0  0  0  0  0  0
   45.2358   15.4503   82.8119 C   0  0  0  0  0  0
   44.1382   15.2759   80.5327 C   0  0  0  0  0  0
   44.0365   13.7624   80.3892 C   0  0  0  0  0  0
   42.6437   13.2257   80.8039 C   0  0  0  0  0  0
   42.7829   11.6900   80.9552 C   0  0  0  0  0  0
   41.6104   13.5220   79.6928 C   0  0  0  0  0  0
   38.3978   15.3242   85.4844 C   0  0  0  0  0  0
   37.4208   16.1216   86.2661 C   0  0  0  0  0  0
   36.3716   15.5337   86.9983 C   0  0  0  0  0  0
   35.4708   16.3298   87.7126 C   0  0  0  0  0  0
   35.5949   17.7298   87.7095 C   0  0  0  0  0  0
   34.6446   18.5871   88.4595 C   0  0  0  0  0  0
   33.5901   18.0857   88.9327 O   0  0  0  0  0  0
   34.8748   19.9496   88.6472 O   0  0  0  0  0  0
   36.6255   18.3160   86.9556 C   0  0  0  0  0  0
   37.5259   17.5206   86.2419 C   0  0  0  0  0  0
   34.2031   20.5598   89.0945 H   0  0  0  0  0  0
  1  2  1  0  0  0
  2  3  2  0  0  0
  2  4  1  0  0  0
  4  5  2  0  0  0
  5  6  1  0  0  0
  6  7  2  0  0  0
  7  8  1  0  0  0
  8  9  2  0  0  0
  7 10  1  0  0  0
 10 11  1  0  0  0
 10 12  1  0  0  0
 10 13  1  0  0  0
 13 14  1  0  0  0
 14 15  1  0  0  0
 15 16  1  0  0  0
 15 17  1  0  0  0
  1 18  2  0  0  0
 18 19  1  0  0  0
 19 20  2  0  0  0
 20 21  1  0  0  0
 21 22  2  0  0  0
 22 23  1  0  0  0
 23 24  2  0  0  0
 23 25  1  0  0  0
 22 26  1  0  0  0
 26 27  2  0  0  0
  9  4  1  0  0  0
 27 19  1  0  0  0
 15  6  1  0  0  0
 25 28  1  0  0  0
M  END
>  <CHROM.0>
-144.98630076,-57.66606931,69.80152525,-55.34474967,-176.25650171,-70.21916817
-179.59637438,66.38344108,70.68705857,-178.37741566,-62.93748789,-52.26118278
61.87387474

>  <CHROM.1>
-173.19720632,-147.66004784,-1.87304280,-11.37275693,175.21336794,39.82638483
15.39773261,84.34058962,2.61923351,0.57117845,0.30368520

>  <RI>
3.63097e+07

>  <Rbt.Current_Directory>
/extra/banzai2/j5wagner/CELPP/2016_10_17_rdock_implementation/normal_run/tutorialVideo/tutorial_rdock_implementation/full_week_run/4-docking/1fcz/hiResHolo_1fcy_docking

>  <Rbt.Executable>
rbdock ($Id: //depot/dev/client3/rdock/2013.1/src/exe/rbdock.cxx#4 $)

>  <Rbt.Library>
libRbt.so (2013.1, Build901 2013/11/27)

>  <Rbt.Parameter_File>
/home/j5wagner/env_00/source/rDock/rDock_2013.1_src//data/scripts/dock.prm

>  <Rbt.Receptor>
/extra/banzai2/j5wagner/CELPP/2016_10_17_rdock_implementation/normal_run/tutorialVideo/tutorial_rdock_implementation/full_week_run/4-docking/1fcz/hiResHolo_1fcy_tech_prep/rDockGridGenInput.prm

>  <SCORE>
-48.8754

>  <SCORE.INTER>
-28.4409

>  <SCORE.INTER.CONST>
1

>  <SCORE.INTER.POLAR>
-1.58682

>  <SCORE.INTER.REPUL>
0

>  <SCORE.INTER.ROT>
4

>  <SCORE.INTER.VDW>
-32.4457

>  <SCORE.INTER.norm>
-1.05337

>  <SCORE.INTRA>
-2.3201

>  <SCORE.INTRA.DIHEDRAL>
-5.88533

>  <SCORE.INTRA.DIHEDRAL.0>
10.7811

>  <SCORE.INTRA.POLAR>
0

>  <SCORE.INTRA.POLAR.0>
0

>  <SCORE.INTRA.REPUL>
0

>  <SCORE.INTRA.REPUL.0>
0

>  <SCORE.INTRA.VDW>
0.622571

>  <SCORE.INTRA.VDW.0>
-0.812999

>  <SCORE.INTRA.norm>
-0.0859295

>  <SCORE.RESTR>
0

>  <SCORE.RESTR.CAVITY>
0

>  <SCORE.RESTR.norm>
0

>  <SCORE.SYSTEM>
-18.1144

>  <SCORE.SYSTEM.CONST>
0

>  <SCORE.SYSTEM.DIHEDRAL>
4.21131

>  <SCORE.SYSTEM.POLAR>
-5.52964

>  <SCORE.SYSTEM.REPUL>
0.20608

>  <SCORE.SYSTEM.VDW>
-2.44966

>  <SCORE.SYSTEM.norm>
-0.670903

>  <SCORE.heavy>
27

>  <SCORE.norm>
-1.8102

$$$$

  rDOCK(R)          3D
libRbt.so/2013.1/901 2013/11/27
 28 30  0  0  0  0  0  0  0  0999 V2000
   38.6722   13.8456   84.9154 C   0  0  0  0  0  0
   39.6273   12.8662   84.3552 C   0  0  0  0  0  0
   39.3184   11.6451   84.4002 O   0  0  0  0  0  0
   40.9310   13.2541   83.7638 C   0  0  0  0  0  0
   41.3967   14.5676   83.8955 C   0  0  0  0  0  0
   42.6182   14.9834   83.3170 C   0  0  0  0  0  0
   43.4274   14.0107   82.6557 C   0  0  0  0  0  0
   42.9081   12.7096   82.4795 C   0  0  0  0  0  0
   41.6812   12.3395   83.0215 C   0  0  0  0  0  0
   44.8010   14.3496   82.0569 C   0  0  0  0  0  0
   45.8487   13.2769   82.4465 C   0  0  0  0  0  0
   44.6827   14.3893   80.5161 C   0  0  0  0  0  0
   45.3316   15.7060   82.5837 C   0  0  0  0  0  0
   44.2599   16.7891   82.5701 C   0  0  0  0  0  0
   43.0644   16.4436   83.4928 C   0  0  0  0  0  0
   41.9172   17.4167   83.1219 C   0  0  0  0  0  0
   43.4526   16.6765   84.9710 C   0  0  0  0  0  0
   39.0584   15.0231   85.4288 C   0  0  0  0  0  0
   38.1225   16.0268   85.9928 C   0  0  0  0  0  0
   36.7317   15.8170   86.0594 C   0  0  0  0  0  0
   35.8902   16.7984   86.5926 C   0  0  0  0  0  0
   36.4170   18.0115   87.0680 C   0  0  0  0  0  0
   35.5361   19.0629   87.6328 C   0  0  0  0  0  0
   34.2848   18.9313   87.5678 O   0  0  0  0  0  0
   36.0531   20.2138   88.2268 O   0  0  0  0  0  0
   37.8018   18.2304   86.9750 C   0  0  0  0  0  0
   38.6430   17.2499   86.4424 C   0  0  0  0  0  0
   37.0462   20.3960   88.2903 H   0  0  0  0  0  0
  1  2  1  0  0  0
  2  3  2  0  0  0
  2  4  1  0  0  0
  4  5  2  0  0  0
  5  6  1  0  0  0
  6  7  2  0  0  0
  7  8  1  0  0  0
  8  9  2  0  0  0
  7 10  1  0  0  0
 10 11  1  0  0  0
 10 12  1  0  0  0
 10 13  1  0  0  0
 13 14  1  0  0  0
 14 15  1  0  0  0
 15 16  1  0  0  0
 15 17  1  0  0  0
  1 18  2  0  0  0
 18 19  1  0  0  0
 19 20  2  0  0  0
 20 21  1  0  0  0
 21 22  2  0  0  0
 22 23  1  0  0  0
 23 24  2  0  0  0
 23 25  1  0  0  0
 22 26  1  0  0  0
 26 27  2  0  0  0
  9  4  1  0  0  0
 27 19  1  0  0  0
 15  6  1  0  0  0
 25 28  1  0  0  0
M  END
>  <CHROM.0>
-145.44832812,-57.64658988,70.55593681,64.13104898,-178.31482261,173.40075019
61.05895723,68.91621821,69.30009086,61.23856238,-63.62950214,64.64039123
-176.61998685

>  <CHROM.1>
151.62077885,9.58271613,1.13150061,-7.14909223,0.94045225,40.45734087,15.62974866
84.55441729,2.62668054,0.43304798,0.25231627

>  <RI>
3.63097e+07

>  <Rbt.Current_Directory>
/extra/banzai2/j5wagner/CELPP/2016_10_17_rdock_implementation/normal_run/tutorialVideo/tutorial_rdock_implementation/full_week_run/4-docking/1fcz/hiResHolo_1fcy_docking

>  <Rbt.Executable>
rbdock ($Id: //depot/dev/client3/rdock/2013.1/src/exe/rbdock.cxx#4 $)

>  <Rbt.Library>
libRbt.so (2013.1, Build901 2013/11/27)

>  <Rbt.Parameter_File>
/home/j5wagner/env_00/source/rDock/rDock_2013.1_src//data/scripts/dock.prm

>  <Rbt.Receptor>
/extra/banzai2/j5wagner/CELPP/2016_10_17_rdock_implementation/normal_run/tutorialVideo/tutorial_rdock_implementation/full_week_run/4-docking/1fcz/hiResHolo_1fcy_tech_prep/rDockGridGenInput.prm

>  <SCORE>
-47.4613

>  <SCORE.INTER>
-19.0944

>  <SCORE.INTER.CONST>
1

>  <SCORE.INTER.POLAR>
-1.06367

>  <SCORE.INTER.REPUL>
0

>  <SCORE.INTER.ROT>
4

>  <SCORE.INTER.VDW>
-24.8779

>  <SCORE.INTER.norm>
-0.707199

>  <SCORE.INTRA>
-2.63304

>  <SCORE.INTRA.DIHEDRAL>
-7.51575

>  <SCORE.INTRA.DIHEDRAL.0>
10.7811

>  <SCORE.INTRA.POLAR>
0

>  <SCORE.INTRA.POLAR.0>
0

>  <SCORE.INTRA.REPUL>
0

>  <SCORE.INTRA.REPUL.0>
0

>  <SCORE.INTRA.VDW>
1.12484

>  <SCORE.INTRA.VDW.0>
-0.812999

>  <SCORE.INTRA.norm>
-0.0975199

>  <SCORE.RESTR>
0

>  <SCORE.RESTR.CAVITY>
0

>  <SCORE.RESTR.norm>
0

>  <SCORE.SYSTEM>
-25.7339

>  <SCORE.SYSTEM.CONST>
0

>  <SCORE.SYSTEM.DIHEDRAL>
3.96882

>  <SCORE.SYSTEM.POLAR>
-6.72983

>  <SCORE.SYSTEM.VDW>
-4.8369

>  <SCORE.SYSTEM.norm>
-0.953108

>  <SCORE.heavy>
27

>  <SCORE.norm>
-1.75783

$$$$

  rDOCK(R)          3D
libRbt.so/2013.1/901 2013/11/27
 28 30  0  0  0  0  0  0  0  0999 V2000
   40.0652   15.7919   85.4061 C   0  0  0  0  0  0
   41.4449   15.8748   84.8818 C   0  0  0  0  0  0
   42.2351   16.6957   85.4207 O   0  0  0  0  0  0
   41.9301   15.0534   83.7462 C   0  0  0  0  0  0
   43.2238   15.2438   83.2464 C   0  0  0  0  0  0
   43.7099   14.5036   82.1440 C   0  0  0  0  0  0
   42.8818   13.4820   81.5881 C   0  0  0  0  0  0
   41.5594   13.3524   82.0657 C   0  0  0  0  0  0
   41.0919   14.1259   83.1235 C   0  0  0  0  0  0
   43.3473   12.5789   80.4357 C   0  0  0  0  0  0
   43.0065   11.0963   80.7291 C   0  0  0  0  0  0
   42.6239   13.0055   79.1379 C   0  0  0  0  0  0
   44.8815   12.6552   80.2380 C   0  0  0  0  0  0
   45.3972   14.0885   80.2748 C   0  0  0  0  0  0
   45.1373   14.7710   81.6410 C   0  0  0  0  0  0
   45.3715   16.2886   81.4347 C   0  0  0  0  0  0
   46.1462   14.2527   82.6915 C   0  0  0  0  0  0
   39.4922   16.7865   86.1001 C   0  0  0  0  0  0
   38.1087   16.7330   86.6336 C   0  0  0  0  0  0
   37.4162   17.8794   87.0682 C   0  0  0  0  0  0
   36.1157   17.7752   87.5716 C   0  0  0  0  0  0
   35.4788   16.5251   87.6554 C   0  0  0  0  0  0
   34.1011   16.3990   88.1906 C   0  0  0  0  0  0
   33.4541   17.4344   88.5015 O   0  0  0  0  0  0
   33.4963   15.1565   88.3779 O   0  0  0  0  0  0
   36.1818   15.3790   87.2474 C   0  0  0  0  0  0
   37.4812   15.4828   86.7442 C   0  0  0  0  0  0
   32.5433   15.0570   88.7024 H   0  0  0  0  0  0
  1  2  1  0  0  0
  2  3  2  0  0  0
  2  4  1  0  0  0
  4  5  2  0  0  0
  5  6  1  0  0  0
  6  7  2  0  0  0
  7  8  1  0  0  0
  8  9  2  0  0  0
  7 10  1  0  0  0
 10 11  1  0  0  0
 10 12  1  0  0  0
 10 13  1  0  0  0
 13 14  1  0  0  0
 14 15  1  0  0  0
 15 16  1  0  0  0
 15 17  1  0  0  0
  1 18  2  0  0  0
 18 19  1  0  0  0
 19 20  2  0  0  0
 20 21  1  0  0  0
 21 22  2  0  0  0
 22 23  1  0  0  0
 23 24  2  0  0  0
 23 25  1  0  0  0
 22 26  1  0  0  0
 26 27  2  0  0  0
  9  4  1  0  0  0
 27 19  1  0  0  0
 15  6  1  0  0  0
 25 28  1  0  0  0
M  END
>  <CHROM.0>
-27.88358988,-54.64964702,174.14954588,-59.01104374,-56.80753962,-70.48439931
-52.61356555,173.63697839,-52.84502378,60.73336711,178.90110183,65.97251402
-60.61109439

>  <CHROM.1>
21.61157969,175.94919176,-164.23350220,4.37875243,-177.16879775,40.54959867
15.11651696,84.16193256,-2.54077723,-0.34201782,-2.42745661

>  <RI>
3.63097e+07

>  <Rbt.Current_Directory>
/extra/banzai2/j5wagner/CELPP/2016_10_17_rdock_implementation/normal_run/tutorialVideo/tutorial_rdock_implementation/full_week_run/4-docking/1fcz/hiResHolo_1fcy_docking

>  <Rbt.Executable>
rbdock ($Id: //depot/dev/client3/rdock/2013.1/src/exe/rbdock.cxx#4 $)

>  <Rbt.Library>
libRbt.so (2013.1, Build901 2013/11/27)

>  <Rbt.Parameter_File>
/home/j5wagner/env_00/source/rDock/rDock_2013.1_src//data/scripts/dock.prm

>  <Rbt.Receptor>
/extra/banzai2/j5wagner/CELPP/2016_10_17_rdock_implementation/normal_run/tutorialVideo/tutorial_rdock_implementation/full_week_run/4-docking/1fcz/hiResHolo_1fcy_tech_prep/rDockGridGenInput.prm

>  <SCORE>
-46.6038

>  <SCORE.INTER>
-22.4426

>  <SCORE.INTER.CONST>
1

>  <SCORE.INTER.POLAR>
-0.455585

>  <SCORE.INTER.REPUL>
0.202028

>  <SCORE.INTER.ROT>
4

>  <SCORE.INTER.VDW>
-31.3038

>  <SCORE.INTER.norm>
-0.831208

>  <SCORE.INTRA>
-2.94014

>  <SCORE.INTRA.DIHEDRAL>
-7.94908

>  <SCORE.INTRA.DIHEDRAL.0>
10.7811

>  <SCORE.INTRA.POLAR>
0

>  <SCORE.INTRA.POLAR.0>
0

>  <SCORE.INTRA.REPUL>
0

>  <SCORE.INTRA.REPUL.0>
0

>  <SCORE.INTRA.VDW>
1.0344

>  <SCORE.INTRA.VDW.0>
-0.812999

>  <SCORE.INTRA.norm>
-0.108894

>  <SCORE.RESTR>
0

>  <SCORE.RESTR.CAVITY>
0

>  <SCORE.RESTR.norm>
0

>  <SCORE.SYSTEM>
-21.2211

>  <SCORE.SYSTEM.CONST>
0

>  <SCORE.SYSTEM.DIHEDRAL>
3.50708

>  <SCORE.SYSTEM.POLAR>
-6.76433

>  <SCORE.SYSTEM.REPUL>
0.156377

>  <SCORE.SYSTEM.VDW>
-0.757766

>  <SCORE.SYSTEM.norm>
-0.785965

>  <SCORE.heavy>
27

>  <SCORE.norm>
-1.72607

$$$$

  rDOCK(R)          3D
libRbt.so/2013.1/901 2013/11/27
 28 30  0  0  0  0  0  0  0  0999 V2000
   39.1663   14.6675   85.0757 C   0  0  0  0  0  0
   40.1722   13.7426   84.5118 C   0  0  0  0  0  0
   39.9713   12.5041   84.6317 O   0  0  0  0  0  0
   41.4067   14.2056   83.8324 C   0  0  0  0  0  0
   41.8891   13.5189   82.7120 C   0  0  0  0  0  0
   43.0804   13.9098   82.0580 C   0  0  0  0  0  0
   43.7542   15.0846   82.5099 C   0  0  0  0  0  0
   43.2858   15.7223   83.6794 C   0  0  0  0  0  0
   42.1347   15.2887   84.3297 C   0  0  0  0  0  0
   45.0154   15.6285   81.8216 C   0  0  0  0  0  0
   44.9092   17.1601   81.6136 C   0  0  0  0  0  0
   46.2428   15.3343   82.7143 C   0  0  0  0  0  0
   45.2147   14.9988   80.4207 C   0  0  0  0  0  0
   45.0011   13.4902   80.4308 C   0  0  0  0  0  0
   43.5574   13.1044   80.8391 C   0  0  0  0  0  0
   43.5719   11.5876   81.1547 C   0  0  0  0  0  0
   42.5894   13.3556   79.6602 C   0  0  0  0  0  0
   38.3144   14.3076   86.0473 C   0  0  0  0  0  0
   37.2988   15.2154   86.6354 C   0  0  0  0  0  0
   36.4974   14.8504   87.7341 C   0  0  0  0  0  0
   35.5474   15.7394   88.2466 C   0  0  0  0  0  0
   35.3738   17.0105   87.6726 C   0  0  0  0  0  0
   34.3675   17.9624   88.2034 C   0  0  0  0  0  0
   34.1786   19.0625   87.6190 O   0  0  0  0  0  0
   33.6254   17.6835   89.3506 O   0  0  0  0  0  0
   36.1548   17.3622   86.5588 C   0  0  0  0  0  0
   37.1043   16.4742   86.0466 C   0  0  0  0  0  0
   33.6974   16.8047   89.8466 H   0  0  0  0  0  0
  1  2  1  0  0  0
  2  3  2  0  0  0
  2  4  1  0  0  0
  4  5  2  0  0  0
  5  6  1  0  0  0
  6  7  2  0  0  0
  7  8  1  0  0  0
  8  9  2  0  0  0
  7 10  1  0  0  0
 10 11  1  0  0  0
 10 12  1  0  0  0
 10 13  1  0  0  0
 13 14  1  0  0  0
 14 15  1  0  0  0
 15 16  1  0  0  0
 15 17  1  0  0  0
  1 18  2  0  0  0
 18 19  1  0  0  0
 19 20  2  0  0  0
 20 21  1  0  0  0
 21 22  2  0  0  0
 22 23  1  0  0  0
 23 24  2  0  0  0
 23 25  1  0  0  0
 22 26  1  0  0  0
 26 27  2  0  0  0
  9  4  1  0  0  0
 27 19  1  0  0  0
 15  6  1  0  0  0
 25 28  1  0  0  0
M  END
>  <CHROM.0>
95.40381372,-177.95204929,-53.51238465,64.79664379,-177.55505401,52.64305603
-52.48228618,172.00048182,71.65859270,-52.62419956,-66.59308520,174.46043480
64.20927759

>  <CHROM.1>
22.11781823,-142.25422863,-174.20871277,-175.73877733,-3.43199316,40.33395918
15.16176910,84.30044796,2.76993160,0.55032045,0.24055217

>  <RI>
3.63097e+07

>  <Rbt.Current_Directory>
/extra/banzai2/j5wagner/CELPP/2016_10_17_rdock_implementation/normal_run/tutorialVideo/tutorial_rdock_implementation/full_week_run/4-docking/1fcz/hiResHolo_1fcy_docking

>  <Rbt.Executable>
rbdock ($Id: //depot/dev/client3/rdock/2013.1/src/exe/rbdock.cxx#4 $)

>  <Rbt.Library>
libRbt.so (2013.1, Build901 2013/11/27)

>  <Rbt.Parameter_File>
/home/j5wagner/env_00/source/rDock/rDock_2013.1_src//data/scripts/dock.prm

>  <Rbt.Receptor>
/extra/banzai2/j5wagner/CELPP/2016_10_17_rdock_implementation/normal_run/tutorialVideo/tutorial_rdock_implementation/full_week_run/4-docking/1fcz/hiResHolo_1fcy_tech_prep/rDockGridGenInput.prm

>  <SCORE>
-45.7391

>  <SCORE.INTER>
-27.3278

>  <SCORE.INTER.CONST>
1

>  <SCORE.INTER.POLAR>
-1.51048

>  <SCORE.INTER.REPUL>
0

>  <SCORE.INTER.ROT>
4

>  <SCORE.INTER.VDW>
-31.5922

>  <SCORE.INTER.norm>
-1.01214

>  <SCORE.INTRA>
-1.09056

>  <SCORE.INTRA.DIHEDRAL>
-3.59712

>  <SCORE.INTRA.DIHEDRAL.0>
10.7811

>  <SCORE.INTRA.POLAR>
0

>  <SCORE.INTRA.POLAR.0>
0

>  <SCORE.INTRA.REPUL>
0

>  <SCORE.INTRA.REPUL.0>
0

>  <SCORE.INTRA.VDW>
0.708002

>  <SCORE.INTRA.VDW.0>
-0.812999

>  <SCORE.INTRA.norm>
-0.0403911

>  <SCORE.RESTR>
0

>  <SCORE.RESTR.CAVITY>
0

>  <SCORE.RESTR.norm>
0

>  <SCORE.SYSTEM>
-17.3207

>  <SCORE.SYSTEM.CONST>
0

>  <SCORE.SYSTEM.DIHEDRAL>
4.64997

>  <SCORE.SYSTEM.POLAR>
-4.9614

>  <SCORE.SYSTEM.REPUL>
0.0214727

>  <SCORE.SYSTEM.VDW>
-2.88423

>  <SCORE.SYSTEM.norm>
-0.641506

>  <SCORE.heavy>
27

>  <SCORE.norm>
-1.69404

$$$$

  rDOCK(R)          3D
libRbt.so/2013.1/901 2013/11/27
 28 30  0  0  0  0  0  0  0  0999 V2000
   40.9244   16.4171   85.6366 C   0  0  0  0  0  0
   42.2680   16.1344   85.0887 C   0  0  0  0  0  0
   43.2611   16.6720   85.6483 O   0  0  0  0  0  0
   42.4942   15.2668   83.9072 C   0  0  0  0  0  0
   43.7695   15.1791   83.3366 C   0  0  0  0  0  0
   44.0169   14.3892   82.1901 C   0  0  0  0  0  0
   42.9508   13.6014   81.6599 C   0  0  0  0  0  0
   41.6603   13.7555   82.2116 C   0  0  0  0  0  0
   41.4362   14.5753   83.3132 C   0  0  0  0  0  0
   43.1385   12.6594   80.4609 C   0  0  0  0  0  0
   42.4860   11.2819   80.7385 C   0  0  0  0  0  0
   42.4642   13.2850   79.2185 C   0  0  0  0  0  0
   44.6376   12.3954   80.1748 C   0  0  0  0  0  0
   45.4663   13.6735   80.2152 C   0  0  0  0  0  0
   45.4395   14.3466   81.6102 C   0  0  0  0  0  0
   46.0009   15.7790   81.4266 C   0  0  0  0  0  0
   46.3579   13.5764   82.5867 C   0  0  0  0  0  0
   39.9899   15.4674   85.7916 C   0  0  0  0  0  0
   38.6360   15.7209   86.3430 C   0  0  0  0  0  0
   38.0620   17.0059   86.3897 C   0  0  0  0  0  0
   36.7850   17.1942   86.9276 C   0  0  0  0  0  0
   36.0540   16.1056   87.4334 C   0  0  0  0  0  0
   34.6999   16.2908   88.0102 C   0  0  0  0  0  0
   34.1131   15.3168   88.5527 O   0  0  0  0  0  0
   34.0404   17.5184   87.9577 O   0  0  0  0  0  0
   36.6397   14.8286   87.4115 C   0  0  0  0  0  0
   37.9156   14.6401   86.8740 C   0  0  0  0  0  0
   34.4425   18.3353   87.5168 H   0  0  0  0  0  0
  1  2  1  0  0  0
  2  3  2  0  0  0
  2  4  1  0  0  0
  4  5  2  0  0  0
  5  6  1  0  0  0
  6  7  2  0  0  0
  7  8  1  0  0  0
  8  9  2  0  0  0
  7 10  1  0  0  0
 10 11  1  0  0  0
 10 12  1  0  0  0
 10 13  1  0  0  0
 13 14  1  0  0  0
 14 15  1  0  0  0
 15 16  1  0  0  0
 15 17  1  0  0  0
  1 18  2  0  0  0
 18 19  1  0  0  0
 19 20  2  0  0  0
 20 21  1  0  0  0
 21 22  2  0  0  0
 22 23  1  0  0  0
 23 24  2  0  0  0
 23 25  1  0  0  0
 22 26  1  0  0  0
 26 27  2  0  0  0
  9  4  1  0  0  0
 27 19  1  0  0  0
 15  6  1  0  0  0
 25 28  1  0  0  0
M  END
>  <CHROM.0>
-24.03797745,-56.46077761,-54.63828487,178.84341834,-59.63181674,172.48937913
178.06664501,-179.62251204,63.73310052,-51.76824963,179.64243309,-53.21354539
178.88935033

>  <CHROM.1>
-137.28240902,171.73555394,19.21995616,-174.31384406,0.81629731,40.93469578
14.93387123,84.11519428,-2.51319589,-0.26524878,-2.29755260

>  <RI>
3.63097e+07

>  <Rbt.Current_Directory>
/extra/banzai2/j5wagner/CELPP/2016_10_17_rdock_implementation/normal_run/tutorialVideo/tutorial_rdock_implementation/full_week_run/4-docking/1fcz/hiResHolo_1fcy_docking

>  <Rbt.Executable>
rbdock ($Id: //depot/dev/client3/rdock/2013.1/src/exe/rbdock.cxx#4 $)

>  <Rbt.Library>
libRbt.so (2013.1, Build901 2013/11/27)

>  <Rbt.Parameter_File>
/home/j5wagner/env_00/source/rDock/rDock_2013.1_src//data/scripts/dock.prm

>  <Rbt.Receptor>
/extra/banzai2/j5wagner/CELPP/2016_10_17_rdock_implementation/normal_run/tutorialVideo/tutorial_rdock_implementation/full_week_run/4-docking/1fcz/hiResHolo_1fcy_tech_prep/rDockGridGenInput.prm

>  <SCORE>
-36.8132

>  <SCORE.INTER>
-19.5516

>  <SCORE.INTER.CONST>
1

>  <SCORE.INTER.POLAR>
0

>  <SCORE.INTER.REPUL>
0

>  <SCORE.INTER.ROT>
4

>  <SCORE.INTER.VDW>
-28.9516

>  <SCORE.INTER.norm>
-0.724133

>  <SCORE.INTRA>
-1.08654

>  <SCORE.INTRA.DIHEDRAL>
-3.63791

>  <SCORE.INTRA.DIHEDRAL.0>
10.7811

>  <SCORE.INTRA.POLAR>
0

>  <SCORE.INTRA.POLAR.0>
0

>  <SCORE.INTRA.REPUL>
0

>  <SCORE.INTRA.REPUL.0>
0

>  <SCORE.INTRA.VDW>
0.732418

>  <SCORE.INTRA.VDW.0>
-0.812999

>  <SCORE.INTRA.norm>
-0.0402421

>  <SCORE.RESTR>
0

>  <SCORE.RESTR.CAVITY>
0

>  <SCORE.RESTR.norm>
0

>  <SCORE.SYSTEM>
-16.1751

>  <SCORE.SYSTEM.CONST>
0

>  <SCORE.SYSTEM.DIHEDRAL>
3.35238

>  <SCORE.SYSTEM.POLAR>
-5.26934

>  <SCORE.SYSTEM.REPUL>
0.232426

>  <SCORE.SYSTEM.VDW>
-1.09765

>  <SCORE.SYSTEM.norm>
-0.599078

>  <SCORE.heavy>
27

>  <SCORE.norm>
-1.36345

$$$$

  rDOCK(R)          3D
libRbt.so/2013.1/901 2013/11/27
 28 30  0  0  0  0  0  0  0  0999 V2000
   40.7251   18.0211   83.5920 C   0  0  0  0  0  0
   41.9582   18.1388   82.7851 C   0  0  0  0  0  0
   42.3188   19.2895   82.4186 O   0  0  0  0  0  0
   42.7726   16.9687   82.3760 C   0  0  0  0  0  0
   42.2335   15.6790   82.4522 C   0  0  0  0  0  0
   42.9901   14.5365   82.1031 C   0  0  0  0  0  0
   44.3067   14.7214   81.5829 C   0  0  0  0  0  0
   44.8517   16.0240   81.5761 C   0  0  0  0  0  0
   44.0989   17.1265   81.9681 C   0  0  0  0  0  0
   45.1797   13.5484   81.1115 C   0  0  0  0  0  0
   45.8357   13.8680   79.7448 C   0  0  0  0  0  0
   46.2969   13.3025   82.1512 C   0  0  0  0  0  0
   44.3430   12.2598   80.9164 C   0  0  0  0  0  0
   43.3827   12.0149   82.0738 C   0  0  0  0  0  0
   42.3382   13.1497   82.2200 C   0  0  0  0  0  0
   41.6741   12.9703   83.6084 C   0  0  0  0  0  0
   41.2509   13.0114   81.1297 C   0  0  0  0  0  0
   40.2666   16.8461   84.0485 C   0  0  0  0  0  0
   39.0360   16.6986   84.8640 C   0  0  0  0  0  0
   38.1767   17.7777   85.1464 C   0  0  0  0  0  0
   37.0325   17.5888   85.9279 C   0  0  0  0  0  0
   36.7221   16.3202   86.4472 C   0  0  0  0  0  0
   35.5139   16.1057   87.2807 C   0  0  0  0  0  0
   35.3227   14.9871   87.8280 O   0  0  0  0  0  0
   34.5631   17.1084   87.4685 O   0  0  0  0  0  0
   37.5956   15.2507   86.1878 C   0  0  0  0  0  0
   38.7389   15.4392   85.4068 C   0  0  0  0  0  0
   33.7347   16.9756   88.0338 H   0  0  0  0  0  0
  1  2  1  0  0  0
  2  3  2  0  0  0
  2  4  1  0  0  0
  4  5  2  0  0  0
  5  6  1  0  0  0
  6  7  2  0  0  0
  7  8  1  0  0  0
  8  9  2  0  0  0
  7 10  1  0  0  0
 10 11  1  0  0  0
 10 12  1  0  0  0
 10 13  1  0  0  0
 13 14  1  0  0  0
 14 15  1  0  0  0
 15 16  1  0  0  0
 15 17  1  0  0  0
  1 18  2  0  0  0
 18 19  1  0  0  0
 19 20  2  0  0  0
 20 21  1  0  0  0
 21 22  2  0  0  0
 22 23  1  0  0  0
 23 24  2  0  0  0
 23 25  1  0  0  0
 22 26  1  0  0  0
 26 27  2  0  0  0
  9  4  1  0  0  0
 27 19  1  0  0  0
 15  6  1  0  0  0
 25 28  1  0  0  0
M  END
>  <CHROM.0>
-29.39377342,-55.17831545,66.62903540,63.37575887,-61.74624245,172.19041009
-52.65252280,177.74873057,69.69532482,60.85409003,-63.27579077,-52.76786680
-57.44287980

>  <CHROM.1>
-178.96810659,16.03339693,5.08737390,-173.84977185,179.97319275,41.05407430
15.48352930,83.51882724,-2.90069042,-0.57637475,-3.14057155

>  <RI>
3.63097e+07

>  <Rbt.Current_Directory>
/extra/banzai2/j5wagner/CELPP/2016_10_17_rdock_implementation/normal_run/tutorialVideo/tutorial_rdock_implementation/full_week_run/4-docking/1fcz/hiResHolo_1fcy_docking

>  <Rbt.Executable>
rbdock ($Id: //depot/dev/client3/rdock/2013.1/src/exe/rbdock.cxx#4 $)

>  <Rbt.Library>
libRbt.so (2013.1, Build901 2013/11/27)

>  <Rbt.Parameter_File>
/home/j5wagner/env_00/source/rDock/rDock_2013.1_src//data/scripts/dock.prm

>  <Rbt.Receptor>
/extra/banzai2/j5wagner/CELPP/2016_10_17_rdock_implementation/normal_run/tutorialVideo/tutorial_rdock_implementation/full_week_run/4-docking/1fcz/hiResHolo_1fcy_tech_prep/rDockGridGenInput.prm

>  <SCORE>
-17.6587

>  <SCORE.INTER>
11.9263

>  <SCORE.INTER.CONST>
1

>  <SCORE.INTER.POLAR>
0

>  <SCORE.INTER.REPUL>
0.177967

>  <SCORE.INTER.ROT>
4

>  <SCORE.INTER.VDW>
1.63651

>  <SCORE.INTER.norm>
0.441716

>  <SCORE.INTRA>
-3.20059

>  <SCORE.INTRA.DIHEDRAL>
-9.27826

>  <SCORE.INTRA.DIHEDRAL.0>
10.7811

>  <SCORE.INTRA.POLAR>
0

>  <SCORE.INTRA.POLAR.0>
0

>  <SCORE.INTRA.REPUL>
0

>  <SCORE.INTRA.REPUL.0>
0

>  <SCORE.INTRA.VDW>
1.43854

>  <SCORE.INTRA.VDW.0>
-0.812999

>  <SCORE.INTRA.norm>
-0.11854

>  <SCORE.RESTR>
0

>  <SCORE.RESTR.CAVITY>
0

>  <SCORE.RESTR.norm>
0

>  <SCORE.SYSTEM>
-26.3844

>  <SCORE.SYSTEM.CONST>
0

>  <SCORE.SYSTEM.DIHEDRAL>
3.44922

>  <SCORE.SYSTEM.POLAR>
-7.47818

>  <SCORE.SYSTEM.VDW>
-2.68324

>  <SCORE.SYSTEM.norm>
-0.977201

>  <SCORE.heavy>
27

>  <SCORE.norm>
-0.654025

$$$$
