
  rDOCK(R)          3D
libRbt.so/2013.1/901 2013/11/27
 36 40  0  0  0  0  0  0  0  0999 V2000
    9.2053  -33.8301   -5.4787 C   0  0  0  0  0  0
    9.6599  -33.1768   -6.7898 C   0  0  0  0  0  0
   10.0565  -33.3515   -4.2890 C   0  0  0  0  0  0
    9.7604  -31.9392   -3.9669 N   0  0  0  0  0  0
   10.6541  -31.4685   -2.8888 C   0  0  0  0  0  0
   10.3908  -30.0086   -2.5702 C   0  0  0  0  0  0
   11.1500  -28.9329   -3.1216 C   0  0  0  0  0  0
   12.3106  -29.2138   -4.0485 C   0  0  0  0  0  0
   10.7878  -27.5870   -2.8209 C   0  0  0  0  0  0
   11.5381  -26.4958   -3.3829 N   0  0  0  0  0  0
   11.0473  -25.4255   -3.9382 C   0  0  0  0  0  0
    9.6662  -25.2913   -4.1045 O   0  0  0  0  0  0
   11.9746  -24.3816   -4.4400 C   0  0  0  0  0  0
   13.3599  -24.4674   -4.2333 C   0  0  0  0  0  0
   14.1809  -23.4889   -4.6948 N   0  0  0  0  0  0
   13.6878  -22.4187   -5.3719 C   0  0  0  0  0  0
   14.6060  -21.3337   -5.8263 C   0  0  0  0  0  0
   12.3513  -22.3125   -5.5870 N   0  0  0  0  0  0
   11.4921  -23.2655   -5.1432 C   0  0  0  0  0  0
    9.7389  -27.3444   -1.9127 C   0  0  0  0  0  0
    9.0704  -28.4014   -1.3985 N   0  0  0  0  0  0
    8.0468  -28.4265   -0.5346 C   0  0  0  0  0  0
    7.7202  -29.7543   -0.3298 C   0  0  0  0  0  0
    8.5361  -30.5508   -1.0605 N   0  0  0  0  0  0
    9.3466  -29.6775   -1.6970 C   0  0  0  0  0  0
    8.3418  -31.7979   -3.5753 C   0  0  0  0  0  0
    7.4378  -32.1833   -4.7461 C   0  0  0  0  0  0
    7.7869  -33.5295   -5.2207 N   0  0  0  0  0  0
    6.7710  -34.5500   -5.3086 C   0  0  0  0  0  0
    5.8113  -34.5425   -4.4884 O   0  0  0  0  0  0
    6.7928  -35.5956   -6.4072 C   0  0  0  0  0  0
    7.9386  -36.5929   -6.2142 C   0  0  0  0  0  0
    7.3354  -37.8461   -5.5779 C   0  0  0  0  0  0
    5.8247  -37.6417   -5.5181 C   0  0  0  0  0  0
    5.5191  -36.4355   -6.3910 C   0  0  0  0  0  0
    9.0112  -26.0104   -3.8270 H   0  0  0  0  0  0
  1  2  1  0  0  0
  1  3  1  0  0  0
  3  4  1  0  0  0
  4  5  1  0  0  0
  5  6  1  0  0  0
  6  7  2  0  0  0
  7  8  1  0  0  0
  7  9  1  0  0  0
  9 10  1  0  0  0
 10 11  2  0  0  0
 11 12  1  0  0  0
 11 13  1  0  0  0
 13 14  2  0  0  0
 14 15  1  0  0  0
 15 16  2  0  0  0
 16 17  1  0  0  0
 16 18  1  0  0  0
 18 19  2  0  0  0
  9 20  2  0  0  0
 20 21  1  0  0  0
 21 22  1  0  0  0
 22 23  2  0  0  0
 23 24  1  0  0  0
 24 25  2  0  0  0
  4 26  1  0  0  0
 26 27  1  0  0  0
 27 28  1  0  0  0
 28 29  1  0  0  0
 29 30  2  0  0  0
 29 31  1  0  0  0
 31 32  1  0  0  0
 32 33  1  0  0  0
 33 34  1  0  0  0
 34 35  1  0  0  0
 28  1  1  0  0  0
 35 31  1  0  0  0
 25  6  1  0  0  0
 19 13  1  0  0  0
 25 21  1  0  0  0
 12 36  1  0  0  0
M  END
>  <CHROM.0>
-149.98627193,-29.63414099,-166.02276503,61.37904490,175.21698175,10.86997084
170.04313648,-59.02961602,-19.45966589

>  <CHROM.1>
178.45120277,-96.19782254,134.07158487,-1.41557274,-5.31124005,70.39632100
9.68086963,-29.86694823,-4.12281162,-2.41414951,0.97628813,0.82574110

>  <Name>

>  <RI>
1.24701e+07

>  <Rbt.Current_Directory>
/extra/banzai2/j5wagner/CELPP/2016_10_17_rdock_implementation/normal_run/tutorialVideo/tutorial_rdock_implementation/full_week_run/4-docking/5m96/hiTanimoto_5iz0_docking

>  <Rbt.Executable>
rbdock ($Id: //depot/dev/client3/rdock/2013.1/src/exe/rbdock.cxx#4 $)

>  <Rbt.Library>
libRbt.so (2013.1, Build901 2013/11/27)

>  <Rbt.Parameter_File>
/home/j5wagner/env_00/source/rDock/rDock_2013.1_src//data/scripts/dock.prm

>  <Rbt.Receptor>
/extra/banzai2/j5wagner/CELPP/2016_10_17_rdock_implementation/normal_run/tutorialVideo/tutorial_rdock_implementation/full_week_run/4-docking/5m96/hiTanimoto_5iz0_tech_prep/rDockGridGenInput.prm

>  <SCORE>
-23.0286

>  <SCORE.INTER>
-6.91932

>  <SCORE.INTER.CONST>
1

>  <SCORE.INTER.POLAR>
0

>  <SCORE.INTER.REPUL>
0.039615

>  <SCORE.INTER.ROT>
5

>  <SCORE.INTER.VDW>
-17.5174

>  <SCORE.INTER.norm>
-0.197695

>  <SCORE.INTRA>
-0.391025

>  <SCORE.INTRA.DIHEDRAL>
-4.70717

>  <SCORE.INTRA.DIHEDRAL.0>
9.74364

>  <SCORE.INTRA.POLAR>
0

>  <SCORE.INTRA.POLAR.0>
0

>  <SCORE.INTRA.REPUL>
-0.108387

>  <SCORE.INTRA.REPUL.0>
0.108387

>  <SCORE.INTRA.VDW>
2.5045

>  <SCORE.INTRA.VDW.0>
-2.87247

>  <SCORE.INTRA.norm>
-0.0111721

>  <SCORE.RESTR>
0

>  <SCORE.RESTR.CAVITY>
0

>  <SCORE.RESTR.norm>
0

>  <SCORE.SYSTEM>
-15.7183

>  <SCORE.SYSTEM.CONST>
0

>  <SCORE.SYSTEM.DIHEDRAL>
4.00047

>  <SCORE.SYSTEM.POLAR>
-4.41959

>  <SCORE.SYSTEM.REPUL>
0.010269

>  <SCORE.SYSTEM.VDW>
-2.74325

>  <SCORE.SYSTEM.norm>
-0.449094

>  <SCORE.heavy>
35

>  <SCORE.norm>
-0.657961

$$$$

  rDOCK(R)          3D
libRbt.so/2013.1/901 2013/11/27
 36 40  0  0  0  0  0  0  0  0999 V2000
    9.6057  -30.7694   -3.9076 C   0  0  0  0  0  0
    9.6691  -30.1664   -5.3165 C   0  0  0  0  0  0
    9.8563  -29.7009   -2.8285 C   0  0  0  0  0  0
    8.7136  -28.7670   -2.7399 N   0  0  0  0  0  0
    9.0123  -27.6931   -1.7702 C   0  0  0  0  0  0
   10.2013  -26.8694   -2.2285 C   0  0  0  0  0  0
   11.4449  -26.8248   -1.5293 C   0  0  0  0  0  0
   11.6238  -27.5930   -0.2397 C   0  0  0  0  0  0
   12.5321  -26.0778   -2.0705 C   0  0  0  0  0  0
   13.7937  -26.0380   -1.3804 N   0  0  0  0  0  0
   14.9748  -26.0826   -1.9260 C   0  0  0  0  0  0
   15.1041  -26.2603   -3.3062 O   0  0  0  0  0  0
   16.1754  -25.9990   -1.0583 C   0  0  0  0  0  0
   17.4716  -26.1177   -1.5825 C   0  0  0  0  0  0
   18.5498  -26.0489   -0.7597 N   0  0  0  0  0  0
   18.4026  -25.8534    0.5772 C   0  0  0  0  0  0
   19.6012  -25.8296    1.4657 C   0  0  0  0  0  0
   17.1593  -25.7334    1.1097 N   0  0  0  0  0  0
   16.0522  -25.7969    0.3264 C   0  0  0  0  0  0
   12.3314  -25.3241   -3.2433 C   0  0  0  0  0  0
   11.1245  -25.3808   -3.8506 N   0  0  0  0  0  0
   10.6989  -24.7691   -4.9638 C   0  0  0  0  0  0
    9.3880  -25.1592   -5.1662 C   0  0  0  0  0  0
    8.9995  -26.0075   -4.1846 N   0  0  0  0  0  0
   10.0957  -26.1118   -3.4021 C   0  0  0  0  0  0
    7.4905  -29.5018   -2.3526 C   0  0  0  0  0  0
    7.1389  -30.5301   -3.4276 C   0  0  0  0  0  0
    8.2954  -31.4013   -3.6786 N   0  0  0  0  0  0
    8.1554  -32.8337   -3.5787 C   0  0  0  0  0  0
    7.3323  -33.3207   -2.7546 O   0  0  0  0  0  0
    8.9274  -33.7696   -4.4890 C   0  0  0  0  0  0
   10.4364  -33.6751   -4.2465 C   0  0  0  0  0  0
   10.8197  -34.8607   -3.3595 C   0  0  0  0  0  0
    9.5718  -35.7217   -3.1896 C   0  0  0  0  0  0
    8.5646  -35.2259   -4.2142 C   0  0  0  0  0  0
   16.0025  -26.2972   -3.7694 H   0  0  0  0  0  0
  1  2  1  0  0  0
  1  3  1  0  0  0
  3  4  1  0  0  0
  4  5  1  0  0  0
  5  6  1  0  0  0
  6  7  2  0  0  0
  7  8  1  0  0  0
  7  9  1  0  0  0
  9 10  1  0  0  0
 10 11  2  0  0  0
 11 12  1  0  0  0
 11 13  1  0  0  0
 13 14  2  0  0  0
 14 15  1  0  0  0
 15 16  2  0  0  0
 16 17  1  0  0  0
 16 18  1  0  0  0
 18 19  2  0  0  0
  9 20  2  0  0  0
 20 21  1  0  0  0
 21 22  1  0  0  0
 22 23  2  0  0  0
 23 24  1  0  0  0
 24 25  2  0  0  0
  4 26  1  0  0  0
 26 27  1  0  0  0
 27 28  1  0  0  0
 28 29  1  0  0  0
 29 30  2  0  0  0
 29 31  1  0  0  0
 31 32  1  0  0  0
 32 33  1  0  0  0
 33 34  1  0  0  0
 34 35  1  0  0  0
 28  1  1  0  0  0
 35 31  1  0  0  0
 25  6  1  0  0  0
 19 13  1  0  0  0
 25 21  1  0  0  0
 12 36  1  0  0  0
M  END
>  <CHROM.0>
-150.46228290,2.85884754,-47.22821332,-51.03293918,39.11142096,-170.28374605
-49.40845191,64.11722199,-1.16599157

>  <CHROM.1>
62.74705121,-114.60267206,140.26120706,179.78227407,176.34126804,64.76578301
11.67073296,-28.57631020,-2.56061188,-2.48388023,-0.40595335,-0.05456656

>  <Name>

>  <RI>
1.24701e+07

>  <Rbt.Current_Directory>
/extra/banzai2/j5wagner/CELPP/2016_10_17_rdock_implementation/normal_run/tutorialVideo/tutorial_rdock_implementation/full_week_run/4-docking/5m96/hiTanimoto_5iz0_docking

>  <Rbt.Executable>
rbdock ($Id: //depot/dev/client3/rdock/2013.1/src/exe/rbdock.cxx#4 $)

>  <Rbt.Library>
libRbt.so (2013.1, Build901 2013/11/27)

>  <Rbt.Parameter_File>
/home/j5wagner/env_00/source/rDock/rDock_2013.1_src//data/scripts/dock.prm

>  <Rbt.Receptor>
/extra/banzai2/j5wagner/CELPP/2016_10_17_rdock_implementation/normal_run/tutorialVideo/tutorial_rdock_implementation/full_week_run/4-docking/5m96/hiTanimoto_5iz0_tech_prep/rDockGridGenInput.prm

>  <SCORE>
-29.0214

>  <SCORE.INTER>
-20.638

>  <SCORE.INTER.CONST>
1

>  <SCORE.INTER.POLAR>
-1.20186

>  <SCORE.INTER.REPUL>
0

>  <SCORE.INTER.ROT>
5

>  <SCORE.INTER.VDW>
-26.9517

>  <SCORE.INTER.norm>
-0.589658

>  <SCORE.INTRA>
-1.73649

>  <SCORE.INTRA.DIHEDRAL>
-5.5604

>  <SCORE.INTRA.DIHEDRAL.0>
9.74364

>  <SCORE.INTRA.POLAR>
0

>  <SCORE.INTRA.POLAR.0>
0

>  <SCORE.INTRA.REPUL>
-0.0653855

>  <SCORE.INTRA.REPUL.0>
0.108387

>  <SCORE.INTRA.VDW>
1.37064

>  <SCORE.INTRA.VDW.0>
-2.87247

>  <SCORE.INTRA.norm>
-0.0496139

>  <SCORE.RESTR>
0

>  <SCORE.RESTR.CAVITY>
0

>  <SCORE.RESTR.norm>
0

>  <SCORE.SYSTEM>
-6.64688

>  <SCORE.SYSTEM.CONST>
0

>  <SCORE.SYSTEM.DIHEDRAL>
4.65232

>  <SCORE.SYSTEM.POLAR>
-2.76479

>  <SCORE.SYSTEM.REPUL>
0.218661

>  <SCORE.SYSTEM.VDW>
-0.66606

>  <SCORE.SYSTEM.norm>
-0.189911

>  <SCORE.heavy>
35

>  <SCORE.norm>
-0.829183

$$$$

  rDOCK(R)          3D
libRbt.so/2013.1/901 2013/11/27
 36 40  0  0  0  0  0  0  0  0999 V2000
   10.2193  -31.7854   -4.2780 C   0  0  0  0  0  0
   10.3286  -31.1307   -5.6607 C   0  0  0  0  0  0
   10.4103  -30.7533   -3.1521 C   0  0  0  0  0  0
    9.2502  -29.8399   -3.0758 N   0  0  0  0  0  0
    9.4935  -28.7978   -2.0572 C   0  0  0  0  0  0
   10.3632  -27.6886   -2.6187 C   0  0  0  0  0  0
   10.0463  -26.9646   -3.8074 C   0  0  0  0  0  0
    8.8084  -27.3086   -4.6038 C   0  0  0  0  0  0
   10.8860  -25.8902   -4.2240 C   0  0  0  0  0  0
   10.5673  -25.1456   -5.4129 N   0  0  0  0  0  0
   11.3749  -24.8820   -6.3994 C   0  0  0  0  0  0
   12.7169  -25.2659   -6.3297 O   0  0  0  0  0  0
   10.8651  -24.1223   -7.5675 C   0  0  0  0  0  0
   11.4972  -24.1854   -8.8187 C   0  0  0  0  0  0
   11.0127  -23.4682   -9.8653 N   0  0  0  0  0  0
    9.9076  -22.6885   -9.7317 C   0  0  0  0  0  0
    9.4240  -21.8733  -10.8842 C   0  0  0  0  0  0
    9.2760  -22.6114   -8.5321 N   0  0  0  0  0  0
    9.7247  -23.3094   -7.4576 C   0  0  0  0  0  0
   12.0641  -25.6190   -3.5013 C   0  0  0  0  0  0
   12.3302  -26.3539   -2.3978 N   0  0  0  0  0  0
   13.3675  -26.2816   -1.5532 C   0  0  0  0  0  0
   13.1702  -27.2472   -0.5834 C   0  0  0  0  0  0
   12.0180  -27.9171   -0.8235 N   0  0  0  0  0  0
   11.5398  -27.3358   -1.9452 C   0  0  0  0  0  0
    8.0247  -30.6059   -2.7643 C   0  0  0  0  0  0
    7.7320  -31.5993   -3.8887 C   0  0  0  0  0  0
    8.9111  -32.4440   -4.1242 N   0  0  0  0  0  0
    8.7900  -33.8809   -4.0814 C   0  0  0  0  0  0
    7.9429  -34.4095   -3.3088 O   0  0  0  0  0  0
    9.6120  -34.7718   -4.9931 C   0  0  0  0  0  0
    9.3383  -36.2551   -4.7290 C   0  0  0  0  0  0
    8.3604  -36.7260   -5.8066 C   0  0  0  0  0  0
    8.1620  -35.5655   -6.7769 C   0  0  0  0  0  0
    9.2445  -34.5476   -6.4568 C   0  0  0  0  0  0
   13.3858  -25.0442   -7.0552 H   0  0  0  0  0  0
  1  2  1  0  0  0
  1  3  1  0  0  0
  3  4  1  0  0  0
  4  5  1  0  0  0
  5  6  1  0  0  0
  6  7  2  0  0  0
  7  8  1  0  0  0
  7  9  1  0  0  0
  9 10  1  0  0  0
 10 11  2  0  0  0
 11 12  1  0  0  0
 11 13  1  0  0  0
 13 14  2  0  0  0
 14 15  1  0  0  0
 15 16  2  0  0  0
 16 17  1  0  0  0
 16 18  1  0  0  0
 18 19  2  0  0  0
  9 20  2  0  0  0
 20 21  1  0  0  0
 21 22  1  0  0  0
 22 23  2  0  0  0
 23 24  1  0  0  0
 24 25  2  0  0  0
  4 26  1  0  0  0
 26 27  1  0  0  0
 27 28  1  0  0  0
 28 29  1  0  0  0
 29 30  2  0  0  0
 29 31  1  0  0  0
 31 32  1  0  0  0
 32 33  1  0  0  0
 33 34  1  0  0  0
 34 35  1  0  0  0
 28  1  1  0  0  0
 35 31  1  0  0  0
 25  6  1  0  0  0
 19 13  1  0  0  0
 25 21  1  0  0  0
 12 36  1  0  0  0
M  END
>  <CHROM.0>
24.47530092,-29.32681790,72.53978580,-169.74768735,-174.26664955,12.99141472
74.28120491,60.59376846,-9.80287454

>  <CHROM.1>
80.92446018,54.86416082,-129.38125718,-177.20397644,-158.22147364,178.21119262
10.17022219,-28.62052981,-4.94015362,-2.02716592,-1.16697083,-0.69832508

>  <Name>

>  <RI>
1.24701e+07

>  <Rbt.Current_Directory>
/extra/banzai2/j5wagner/CELPP/2016_10_17_rdock_implementation/normal_run/tutorialVideo/tutorial_rdock_implementation/full_week_run/4-docking/5m96/hiTanimoto_5iz0_docking

>  <Rbt.Executable>
rbdock ($Id: //depot/dev/client3/rdock/2013.1/src/exe/rbdock.cxx#4 $)

>  <Rbt.Library>
libRbt.so (2013.1, Build901 2013/11/27)

>  <Rbt.Parameter_File>
/home/j5wagner/env_00/source/rDock/rDock_2013.1_src//data/scripts/dock.prm

>  <Rbt.Receptor>
/extra/banzai2/j5wagner/CELPP/2016_10_17_rdock_implementation/normal_run/tutorialVideo/tutorial_rdock_implementation/full_week_run/4-docking/5m96/hiTanimoto_5iz0_tech_prep/rDockGridGenInput.prm

>  <SCORE>
-26.6659

>  <SCORE.INTER>
-16.1762

>  <SCORE.INTER.CONST>
1

>  <SCORE.INTER.POLAR>
-1.16223

>  <SCORE.INTER.REPUL>
0.00396672

>  <SCORE.INTER.ROT>
5

>  <SCORE.INTER.VDW>
-22.6445

>  <SCORE.INTER.norm>
-0.462178

>  <SCORE.INTRA>
-0.99566

>  <SCORE.INTRA.DIHEDRAL>
-2.07201

>  <SCORE.INTRA.DIHEDRAL.0>
9.74364

>  <SCORE.INTRA.POLAR>
0

>  <SCORE.INTRA.POLAR.0>
0

>  <SCORE.INTRA.REPUL>
-0.108387

>  <SCORE.INTRA.REPUL.0>
0.108387

>  <SCORE.INTRA.VDW>
0.582282

>  <SCORE.INTRA.VDW.0>
-2.87247

>  <SCORE.INTRA.norm>
-0.0284474

>  <SCORE.RESTR>
0.00182159

>  <SCORE.RESTR.CAVITY>
0.00182159

>  <SCORE.RESTR.norm>
5.20455e-05

>  <SCORE.SYSTEM>
-9.49579

>  <SCORE.SYSTEM.CONST>
0

>  <SCORE.SYSTEM.DIHEDRAL>
4.19845

>  <SCORE.SYSTEM.POLAR>
-3.62378

>  <SCORE.SYSTEM.VDW>
0.72583

>  <SCORE.SYSTEM.norm>
-0.271308

>  <SCORE.heavy>
35

>  <SCORE.norm>
-0.761882

$$$$

  rDOCK(R)          3D
libRbt.so/2013.1/901 2013/11/27
 36 40  0  0  0  0  0  0  0  0999 V2000
   11.8246  -25.0030   -5.6541 C   0  0  0  0  0  0
   12.8712  -26.1241   -5.6497 C   0  0  0  0  0  0
   10.4010  -25.5641   -5.4872 C   0  0  0  0  0  0
   10.1966  -26.0759   -4.1153 N   0  0  0  0  0  0
    8.8614  -26.6980   -4.0015 C   0  0  0  0  0  0
    8.9379  -27.9989   -3.2244 C   0  0  0  0  0  0
    8.5138  -29.2564   -3.7500 C   0  0  0  0  0  0
    7.9164  -29.3423   -5.1359 C   0  0  0  0  0  0
    8.6870  -30.4399   -2.9740 C   0  0  0  0  0  0
    8.2755  -31.7138   -3.5006 N   0  0  0  0  0  0
    7.2354  -32.4036   -3.1304 C   0  0  0  0  0  0
    6.4379  -31.9581   -2.0727 O   0  0  0  0  0  0
    6.9437  -33.6912   -3.8076 C   0  0  0  0  0  0
    7.6374  -34.0896   -4.9605 C   0  0  0  0  0  0
    7.3382  -35.2689   -5.5639 N   0  0  0  0  0  0
    6.3774  -36.0903   -5.0646 C   0  0  0  0  0  0
    6.0349  -37.3577   -5.7737 C   0  0  0  0  0  0
    5.6928  -35.7293   -3.9489 N   0  0  0  0  0  0
    5.9565  -34.5593   -3.3126 C   0  0  0  0  0  0
    9.1943  -30.3346   -1.6643 C   0  0  0  0  0  0
    9.5552  -29.1146   -1.2061 N   0  0  0  0  0  0
   10.0622  -28.7647   -0.0165 C   0  0  0  0  0  0
   10.2652  -27.3974   -0.0474 C   0  0  0  0  0  0
    9.8857  -26.8990   -1.2481 N   0  0  0  0  0  0
    9.4567  -27.9877   -1.9232 C   0  0  0  0  0  0
   10.3512  -24.9769   -3.1386 C   0  0  0  0  0  0
   11.7757  -24.4253   -3.1971 C   0  0  0  0  0  0
   12.1019  -24.0382   -4.5766 N   0  0  0  0  0  0
   12.5661  -22.7022   -4.8609 C   0  0  0  0  0  0
   12.1550  -21.7392   -4.1556 O   0  0  0  0  0  0
   13.5900  -22.4347   -5.9475 C   0  0  0  0  0  0
   12.9723  -21.6885   -7.1335 C   0  0  0  0  0  0
   13.3420  -20.2132   -6.9725 C   0  0  0  0  0  0
   14.2811  -20.1094   -5.7745 C   0  0  0  0  0  0
   14.7073  -21.5291   -5.4381 C   0  0  0  0  0  0
    6.5977  -31.0767   -1.6031 H   0  0  0  0  0  0
  1  2  1  0  0  0
  1  3  1  0  0  0
  3  4  1  0  0  0
  4  5  1  0  0  0
  5  6  1  0  0  0
  6  7  2  0  0  0
  7  8  1  0  0  0
  7  9  1  0  0  0
  9 10  1  0  0  0
 10 11  2  0  0  0
 11 12  1  0  0  0
 11 13  1  0  0  0
 13 14  2  0  0  0
 14 15  1  0  0  0
 15 16  2  0  0  0
 16 17  1  0  0  0
 16 18  1  0  0  0
 18 19  2  0  0  0
  9 20  2  0  0  0
 20 21  1  0  0  0
 21 22  1  0  0  0
 22 23  2  0  0  0
 23 24  1  0  0  0
 24 25  2  0  0  0
  4 26  1  0  0  0
 26 27  1  0  0  0
 27 28  1  0  0  0
 28 29  1  0  0  0
 29 30  2  0  0  0
 29 31  1  0  0  0
 31 32  1  0  0  0
 32 33  1  0  0  0
 33 34  1  0  0  0
 34 35  1  0  0  0
 28  1  1  0  0  0
 35 31  1  0  0  0
 25  6  1  0  0  0
 19 13  1  0  0  0
 25 21  1  0  0  0
 12 36  1  0  0  0
M  END
>  <CHROM.0>
-151.37093107,-115.14360243,71.47745680,59.23782968,-3.21624524,144.63672985
-47.38388114,63.14368316,-11.79123039

>  <CHROM.1>
137.11795196,-122.18325195,-106.69777138,3.88472230,-9.53384375,110.82252451
9.80734671,-28.04062329,-3.97843609,-0.16985224,-1.09351504,-1.87281079

>  <Name>

>  <RI>
1.24701e+07

>  <Rbt.Current_Directory>
/extra/banzai2/j5wagner/CELPP/2016_10_17_rdock_implementation/normal_run/tutorialVideo/tutorial_rdock_implementation/full_week_run/4-docking/5m96/hiTanimoto_5iz0_docking

>  <Rbt.Executable>
rbdock ($Id: //depot/dev/client3/rdock/2013.1/src/exe/rbdock.cxx#4 $)

>  <Rbt.Library>
libRbt.so (2013.1, Build901 2013/11/27)

>  <Rbt.Parameter_File>
/home/j5wagner/env_00/source/rDock/rDock_2013.1_src//data/scripts/dock.prm

>  <Rbt.Receptor>
/extra/banzai2/j5wagner/CELPP/2016_10_17_rdock_implementation/normal_run/tutorialVideo/tutorial_rdock_implementation/full_week_run/4-docking/5m96/hiTanimoto_5iz0_tech_prep/rDockGridGenInput.prm

>  <SCORE>
-15.5441

>  <SCORE.INTER>
-11.5656

>  <SCORE.INTER.CONST>
1

>  <SCORE.INTER.POLAR>
0

>  <SCORE.INTER.REPUL>
0

>  <SCORE.INTER.ROT>
5

>  <SCORE.INTER.VDW>
-21.9656

>  <SCORE.INTER.norm>
-0.330447

>  <SCORE.INTRA>
1.16009

>  <SCORE.INTRA.DIHEDRAL>
2.45331

>  <SCORE.INTRA.DIHEDRAL.0>
9.74364

>  <SCORE.INTRA.POLAR>
0

>  <SCORE.INTRA.POLAR.0>
0

>  <SCORE.INTRA.REPUL>
-0.108387

>  <SCORE.INTRA.REPUL.0>
0.108387

>  <SCORE.INTRA.VDW>
0.475374

>  <SCORE.INTRA.VDW.0>
-2.87247

>  <SCORE.INTRA.norm>
0.0331455

>  <SCORE.RESTR>
1.73888

>  <SCORE.RESTR.CAVITY>
1.73888

>  <SCORE.RESTR.norm>
0.0496824

>  <SCORE.SYSTEM>
-6.87745

>  <SCORE.SYSTEM.CONST>
0

>  <SCORE.SYSTEM.DIHEDRAL>
8.01146

>  <SCORE.SYSTEM.POLAR>
-2.7283

>  <SCORE.SYSTEM.REPUL>
0.0712128

>  <SCORE.SYSTEM.VDW>
-1.96302

>  <SCORE.SYSTEM.norm>
-0.196499

>  <SCORE.heavy>
35

>  <SCORE.norm>
-0.444117

$$$$

  rDOCK(R)          3D
libRbt.so/2013.1/901 2013/11/27
 36 40  0  0  0  0  0  0  0  0999 V2000
   10.5265  -30.6682   -4.1532 C   0  0  0  0  0  0
   11.7052  -30.2086   -5.0204 C   0  0  0  0  0  0
   10.0818  -29.5621   -3.1796 C   0  0  0  0  0  0
    9.4251  -28.4555   -3.9076 N   0  0  0  0  0  0
    9.0934  -27.3614   -2.9719 C   0  0  0  0  0  0
   10.1942  -26.3173   -2.9522 C   0  0  0  0  0  0
   11.4133  -26.4719   -2.2261 C   0  0  0  0  0  0
   11.6517  -27.7073   -1.3883 C   0  0  0  0  0  0
   12.4227  -25.4693   -2.3207 C   0  0  0  0  0  0
   13.6604  -25.6227   -1.6037 N   0  0  0  0  0  0
   14.7930  -25.0456   -1.8848 C   0  0  0  0  0  0
   14.9085  -24.2436   -3.0235 O   0  0  0  0  0  0
   15.9676  -25.2964   -1.0137 C   0  0  0  0  0  0
   17.2564  -25.4572   -1.5451 C   0  0  0  0  0  0
   18.3092  -25.6978   -0.7216 N   0  0  0  0  0  0
   18.1448  -25.7763    0.6252 C   0  0  0  0  0  0
   19.3098  -26.0892    1.5035 C   0  0  0  0  0  0
   16.9085  -25.6223    1.1651 N   0  0  0  0  0  0
   15.8264  -25.3815    0.3813 C   0  0  0  0  0  0
   12.1622  -24.2999   -3.0612 C   0  0  0  0  0  0
   10.9793  -24.1931   -3.7076 N   0  0  0  0  0  0
   10.5096  -23.1969   -4.4702 C   0  0  0  0  0  0
    9.2522  -23.5749   -4.9036 C   0  0  0  0  0  0
    8.9406  -24.7981   -4.4130 N   0  0  0  0  0  0
   10.0278  -25.1355   -3.6857 C   0  0  0  0  0  0
    8.2114  -28.9513   -4.5907 C   0  0  0  0  0  0
    8.5935  -30.0014   -5.6338 C   0  0  0  0  0  0
    9.3890  -31.0628   -5.0013 N   0  0  0  0  0  0
    8.9789  -32.4407   -5.1206 C   0  0  0  0  0  0
    7.7498  -32.7177   -5.2003 O   0  0  0  0  0  0
    9.9946  -33.5629   -5.2193 C   0  0  0  0  0  0
   10.5585  -33.9360   -3.8454 C   0  0  0  0  0  0
    9.8104  -35.1869   -3.3820 C   0  0  0  0  0  0
    8.9065  -35.6258   -4.5300 C   0  0  0  0  0  0
    9.3518  -34.8398   -5.7524 C   0  0  0  0  0  0
   15.7263  -23.6791   -3.2121 H   0  0  0  0  0  0
  1  2  1  0  0  0
  1  3  1  0  0  0
  3  4  1  0  0  0
  4  5  1  0  0  0
  5  6  1  0  0  0
  6  7  2  0  0  0
  7  8  1  0  0  0
  7  9  1  0  0  0
  9 10  1  0  0  0
 10 11  2  0  0  0
 11 12  1  0  0  0
 11 13  1  0  0  0
 13 14  2  0  0  0
 14 15  1  0  0  0
 15 16  2  0  0  0
 16 17  1  0  0  0
 16 18  1  0  0  0
 18 19  2  0  0  0
  9 20  2  0  0  0
 20 21  1  0  0  0
 21 22  1  0  0  0
 22 23  2  0  0  0
 23 24  1  0  0  0
 24 25  2  0  0  0
  4 26  1  0  0  0
 26 27  1  0  0  0
 27 28  1  0  0  0
 28 29  1  0  0  0
 29 30  2  0  0  0
 29 31  1  0  0  0
 31 32  1  0  0  0
 32 33  1  0  0  0
 33 34  1  0  0  0
 34 35  1  0  0  0
 28  1  1  0  0  0
 35 31  1  0  0  0
 25  6  1  0  0  0
 19 13  1  0  0  0
 25 21  1  0  0  0
 12 36  1  0  0  0
M  END
>  <CHROM.0>
-151.79384820,4.65251811,-46.82573202,62.01137720,-20.67582367,13.74793797
172.28812468,-62.71111149,7.13839612

>  <CHROM.1>
94.24475978,-79.24360726,157.72747833,171.50914235,140.58917840,79.95471235
11.84084145,-28.06659214,-3.07165833,-2.35913039,-0.50271037,0.02512446

>  <Name>

>  <RI>
1.24701e+07

>  <Rbt.Current_Directory>
/extra/banzai2/j5wagner/CELPP/2016_10_17_rdock_implementation/normal_run/tutorialVideo/tutorial_rdock_implementation/full_week_run/4-docking/5m96/hiTanimoto_5iz0_docking

>  <Rbt.Executable>
rbdock ($Id: //depot/dev/client3/rdock/2013.1/src/exe/rbdock.cxx#4 $)

>  <Rbt.Library>
libRbt.so (2013.1, Build901 2013/11/27)

>  <Rbt.Parameter_File>
/home/j5wagner/env_00/source/rDock/rDock_2013.1_src//data/scripts/dock.prm

>  <Rbt.Receptor>
/extra/banzai2/j5wagner/CELPP/2016_10_17_rdock_implementation/normal_run/tutorialVideo/tutorial_rdock_implementation/full_week_run/4-docking/5m96/hiTanimoto_5iz0_tech_prep/rDockGridGenInput.prm

>  <SCORE>
-33.8384

>  <SCORE.INTER>
-21.4282

>  <SCORE.INTER.CONST>
1

>  <SCORE.INTER.POLAR>
-1.84258

>  <SCORE.INTER.REPUL>
0

>  <SCORE.INTER.ROT>
5

>  <SCORE.INTER.VDW>
-25.5635

>  <SCORE.INTER.norm>
-0.612236

>  <SCORE.INTRA>
1.76708

>  <SCORE.INTRA.DIHEDRAL>
0.275406

>  <SCORE.INTRA.DIHEDRAL.0>
9.74364

>  <SCORE.INTRA.POLAR>
0

>  <SCORE.INTRA.POLAR.0>
0

>  <SCORE.INTRA.REPUL>
-0.108387

>  <SCORE.INTRA.REPUL.0>
0.108387

>  <SCORE.INTRA.VDW>
2.17131

>  <SCORE.INTRA.VDW.0>
-2.87247

>  <SCORE.INTRA.norm>
0.050488

>  <SCORE.RESTR>
0

>  <SCORE.RESTR.CAVITY>
0

>  <SCORE.RESTR.norm>
0

>  <SCORE.SYSTEM>
-14.1772

>  <SCORE.SYSTEM.CONST>
0

>  <SCORE.SYSTEM.DIHEDRAL>
2.78552

>  <SCORE.SYSTEM.POLAR>
-4.24918

>  <SCORE.SYSTEM.REPUL>
0.0442792

>  <SCORE.SYSTEM.VDW>
-1.34418

>  <SCORE.SYSTEM.norm>
-0.405064

>  <SCORE.heavy>
35

>  <SCORE.norm>
-0.966811

$$$$

  rDOCK(R)          3D
libRbt.so/2013.1/901 2013/11/27
 36 40  0  0  0  0  0  0  0  0999 V2000
    7.8307  -30.6404   -3.6519 C   0  0  0  0  0  0
    6.8295  -31.4276   -2.7974 C   0  0  0  0  0  0
    8.0208  -29.2094   -3.1176 C   0  0  0  0  0  0
    8.7585  -29.2217   -1.8364 N   0  0  0  0  0  0
    8.8461  -27.8518   -1.2904 C   0  0  0  0  0  0
   10.0174  -27.1035   -1.8990 C   0  0  0  0  0  0
   11.2884  -26.9778   -1.2616 C   0  0  0  0  0  0
   11.5178  -27.5733    0.1087 C   0  0  0  0  0  0
   12.3545  -26.3157   -1.9384 C   0  0  0  0  0  0
   13.6431  -26.1961   -1.3102 N   0  0  0  0  0  0
   14.7870  -26.5538   -1.8187 C   0  0  0  0  0  0
   14.8341  -27.1902   -3.0621 O   0  0  0  0  0  0
   16.0277  -26.3276   -1.0372 C   0  0  0  0  0  0
   17.2921  -26.6460   -1.5558 C   0  0  0  0  0  0
   18.4080  -26.4382   -0.8102 N   0  0  0  0  0  0
   18.3301  -25.9107    0.4399 C   0  0  0  0  0  0
   19.5669  -25.7371    1.2566 C   0  0  0  0  0  0
   17.1189  -25.5919    0.9646 N   0  0  0  0  0  0
   15.9762  -25.7832    0.2568 C   0  0  0  0  0  0
   12.1082  -25.7193   -3.1904 C   0  0  0  0  0  0
   10.8775  -25.8453   -3.7365 N   0  0  0  0  0  0
   10.4086  -25.3802   -4.9020 C   0  0  0  0  0  0
    9.0896  -25.7834   -4.9994 C   0  0  0  0  0  0
    8.7393  -26.4940   -3.9011 N   0  0  0  0  0  0
    9.8661  -26.5040   -3.1560 C   0  0  0  0  0  0
   10.1056  -29.7972   -2.0355 C   0  0  0  0  0  0
    9.9882  -31.2513   -2.4921 C   0  0  0  0  0  0
    9.1316  -31.3299   -3.6835 N   0  0  0  0  0  0
    9.6198  -31.9657   -4.8829 C   0  0  0  0  0  0
   10.8514  -31.9139   -5.1554 O   0  0  0  0  0  0
    8.6967  -32.7537   -5.7927 C   0  0  0  0  0  0
    9.4805  -33.6844   -6.7225 C   0  0  0  0  0  0
    9.4196  -35.0831   -6.1067 C   0  0  0  0  0  0
    8.4964  -35.0048   -4.8945 C   0  0  0  0  0  0
    7.7795  -33.6677   -4.9857 C   0  0  0  0  0  0
   14.0083  -27.3528   -3.6230 H   0  0  0  0  0  0
  1  2  1  0  0  0
  1  3  1  0  0  0
  3  4  1  0  0  0
  4  5  1  0  0  0
  5  6  1  0  0  0
  6  7  2  0  0  0
  7  8  1  0  0  0
  7  9  1  0  0  0
  9 10  1  0  0  0
 10 11  2  0  0  0
 11 12  1  0  0  0
 11 13  1  0  0  0
 13 14  2  0  0  0
 14 15  1  0  0  0
 15 16  2  0  0  0
 16 17  1  0  0  0
 16 18  1  0  0  0
 18 19  2  0  0  0
  9 20  2  0  0  0
 20 21  1  0  0  0
 21 22  1  0  0  0
 22 23  2  0  0  0
 23 24  1  0  0  0
 24 25  2  0  0  0
  4 26  1  0  0  0
 26 27  1  0  0  0
 27 28  1  0  0  0
 28 29  1  0  0  0
 29 30  2  0  0  0
 29 31  1  0  0  0
 31 32  1  0  0  0
 32 33  1  0  0  0
 33 34  1  0  0  0
 34 35  1  0  0  0
 28  1  1  0  0  0
 35 31  1  0  0  0
 25  6  1  0  0  0
 19 13  1  0  0  0
 25 21  1  0  0  0
 12 36  1  0  0  0
M  END
>  <CHROM.0>
-152.16865160,2.18335468,73.38915583,60.93650433,-169.63559778,-162.52746873
169.41349589,65.01656381,-10.53457700

>  <CHROM.1>
-84.25399765,-97.64519970,126.81366727,3.05685653,-177.53694268,-161.84881642
11.58426129,-28.66277773,-2.72953341,2.42499847,0.26938825,-2.85065815

>  <Name>

>  <RI>
1.24701e+07

>  <Rbt.Current_Directory>
/extra/banzai2/j5wagner/CELPP/2016_10_17_rdock_implementation/normal_run/tutorialVideo/tutorial_rdock_implementation/full_week_run/4-docking/5m96/hiTanimoto_5iz0_docking

>  <Rbt.Executable>
rbdock ($Id: //depot/dev/client3/rdock/2013.1/src/exe/rbdock.cxx#4 $)

>  <Rbt.Library>
libRbt.so (2013.1, Build901 2013/11/27)

>  <Rbt.Parameter_File>
/home/j5wagner/env_00/source/rDock/rDock_2013.1_src//data/scripts/dock.prm

>  <Rbt.Receptor>
/extra/banzai2/j5wagner/CELPP/2016_10_17_rdock_implementation/normal_run/tutorialVideo/tutorial_rdock_implementation/full_week_run/4-docking/5m96/hiTanimoto_5iz0_tech_prep/rDockGridGenInput.prm

>  <SCORE>
-28.5854

>  <SCORE.INTER>
-17.7826

>  <SCORE.INTER.CONST>
1

>  <SCORE.INTER.POLAR>
-0.804381

>  <SCORE.INTER.REPUL>
0.0241722

>  <SCORE.INTER.ROT>
5

>  <SCORE.INTER.VDW>
-25.5686

>  <SCORE.INTER.norm>
-0.508075

>  <SCORE.INTRA>
1.2348

>  <SCORE.INTRA.DIHEDRAL>
-2.8153

>  <SCORE.INTRA.DIHEDRAL.0>
9.74364

>  <SCORE.INTRA.POLAR>
0

>  <SCORE.INTRA.POLAR.0>
0

>  <SCORE.INTRA.REPUL>
-0.108387

>  <SCORE.INTRA.REPUL.0>
0.108387

>  <SCORE.INTRA.VDW>
3.18439

>  <SCORE.INTRA.VDW.0>
-2.87247

>  <SCORE.INTRA.norm>
0.0352801

>  <SCORE.RESTR>
0

>  <SCORE.RESTR.CAVITY>
0

>  <SCORE.RESTR.norm>
0

>  <SCORE.SYSTEM>
-12.0375

>  <SCORE.SYSTEM.CONST>
0

>  <SCORE.SYSTEM.DIHEDRAL>
2.89414

>  <SCORE.SYSTEM.POLAR>
-3.561

>  <SCORE.SYSTEM.REPUL>
0.17484

>  <SCORE.SYSTEM.VDW>
-2.25139

>  <SCORE.SYSTEM.norm>
-0.343929

>  <SCORE.heavy>
35

>  <SCORE.norm>
-0.816724

$$$$

  rDOCK(R)          3D
libRbt.so/2013.1/901 2013/11/27
 36 40  0  0  0  0  0  0  0  0999 V2000
   10.2111  -30.9138   -3.9474 C   0  0  0  0  0  0
   10.5004  -30.3183   -5.3310 C   0  0  0  0  0  0
   10.2243  -29.8288   -2.8559 C   0  0  0  0  0  0
    9.0487  -28.9414   -2.9842 N   0  0  0  0  0  0
    9.1285  -27.8498   -1.9919 C   0  0  0  0  0  0
   10.2556  -26.8931   -2.3335 C   0  0  0  0  0  0
   11.5022  -26.8648   -1.6388 C   0  0  0  0  0  0
   11.7468  -27.7927   -0.4708 C   0  0  0  0  0  0
   12.5317  -25.9789   -2.0730 C   0  0  0  0  0  0
   13.7965  -25.9530   -1.3881 N   0  0  0  0  0  0
   14.9712  -26.1056   -1.9283 C   0  0  0  0  0  0
   15.0847  -26.4001   -3.2898 O   0  0  0  0  0  0
   16.1782  -26.0184   -1.0700 C   0  0  0  0  0  0
   17.4690  -26.1744   -1.5978 C   0  0  0  0  0  0
   18.5532  -26.1011   -0.7832 N   0  0  0  0  0  0
   18.4175  -25.8654    0.5484 C   0  0  0  0  0  0
   19.6216  -25.8374    1.4292 C   0  0  0  0  0  0
   17.1796  -25.7087    1.0842 N   0  0  0  0  0  0
   16.0669  -25.7751    0.3091 C   0  0  0  0  0  0
   12.2678  -25.0832   -3.1275 C   0  0  0  0  0  0
   11.0597  -25.1340   -3.7328 N   0  0  0  0  0  0
   10.5814  -24.4017   -4.7475 C   0  0  0  0  0  0
    9.2963  -24.8455   -4.9987 C   0  0  0  0  0  0
    8.9760  -25.8469   -4.1449 N   0  0  0  0  0  0
   10.0863  -25.9871   -3.3884 C   0  0  0  0  0  0
    7.8057  -29.7226   -2.8099 C   0  0  0  0  0  0
    7.6908  -30.7715   -3.9159 C   0  0  0  0  0  0
    8.9063  -31.5968   -3.9457 N   0  0  0  0  0  0
    8.8063  -33.0329   -3.8524 C   0  0  0  0  0  0
    7.8693  -33.5474   -3.1807 O   0  0  0  0  0  0
    9.7635  -33.9429   -4.5984 C   0  0  0  0  0  0
    9.5037  -35.4179   -4.2796 C   0  0  0  0  0  0
    8.6844  -35.9863   -5.4393 C   0  0  0  0  0  0
    8.5750  -34.8916   -6.4963 C   0  0  0  0  0  0
    9.5770  -33.8169   -6.1075 C   0  0  0  0  0  0
   15.9753  -26.4329   -3.7681 H   0  0  0  0  0  0
  1  2  1  0  0  0
  1  3  1  0  0  0
  3  4  1  0  0  0
  4  5  1  0  0  0
  5  6  1  0  0  0
  6  7  2  0  0  0
  7  8  1  0  0  0
  7  9  1  0  0  0
  9 10  1  0  0  0
 10 11  2  0  0  0
 11 12  1  0  0  0
 11 13  1  0  0  0
 13 14  2  0  0  0
 14 15  1  0  0  0
 15 16  2  0  0  0
 16 17  1  0  0  0
 16 18  1  0  0  0
 18 19  2  0  0  0
  9 20  2  0  0  0
 20 21  1  0  0  0
 21 22  1  0  0  0
 22 23  2  0  0  0
 23 24  1  0  0  0
 24 25  2  0  0  0
  4 26  1  0  0  0
 26 27  1  0  0  0
 27 28  1  0  0  0
 28 29  1  0  0  0
 29 30  2  0  0  0
 29 31  1  0  0  0
 31 32  1  0  0  0
 32 33  1  0  0  0
 33 34  1  0  0  0
 34 35  1  0  0  0
 28  1  1  0  0  0
 35 31  1  0  0  0
 25  6  1  0  0  0
 19 13  1  0  0  0
 25 21  1  0  0  0
 12 36  1  0  0  0
M  END
>  <CHROM.0>
-149.54475548,0.28046015,72.33861215,58.11491173,-7.82123247,12.34761222
-46.91376112,169.23207402,-3.61089524

>  <CHROM.1>
69.05294662,-104.32658358,125.81523861,173.56861388,-179.98385787,176.86776312
11.74646833,-28.62485993,-2.85074281,-2.39884160,-0.40529742,0.08704527

>  <Name>

>  <RI>
1.24701e+07

>  <Rbt.Current_Directory>
/extra/banzai2/j5wagner/CELPP/2016_10_17_rdock_implementation/normal_run/tutorialVideo/tutorial_rdock_implementation/full_week_run/4-docking/5m96/hiTanimoto_5iz0_docking

>  <Rbt.Executable>
rbdock ($Id: //depot/dev/client3/rdock/2013.1/src/exe/rbdock.cxx#4 $)

>  <Rbt.Library>
libRbt.so (2013.1, Build901 2013/11/27)

>  <Rbt.Parameter_File>
/home/j5wagner/env_00/source/rDock/rDock_2013.1_src//data/scripts/dock.prm

>  <Rbt.Receptor>
/extra/banzai2/j5wagner/CELPP/2016_10_17_rdock_implementation/normal_run/tutorialVideo/tutorial_rdock_implementation/full_week_run/4-docking/5m96/hiTanimoto_5iz0_tech_prep/rDockGridGenInput.prm

>  <SCORE>
-35.9507

>  <SCORE.INTER>
-21.0942

>  <SCORE.INTER.CONST>
1

>  <SCORE.INTER.POLAR>
-1.21455

>  <SCORE.INTER.REPUL>
0

>  <SCORE.INTER.ROT>
5

>  <SCORE.INTER.VDW>
-27.3648

>  <SCORE.INTER.norm>
-0.602693

>  <SCORE.INTRA>
-1.61618

>  <SCORE.INTRA.DIHEDRAL>
-3.36364

>  <SCORE.INTRA.DIHEDRAL.0>
9.74364

>  <SCORE.INTRA.POLAR>
0

>  <SCORE.INTRA.POLAR.0>
0

>  <SCORE.INTRA.REPUL>
-0.108387

>  <SCORE.INTRA.REPUL.0>
0.108387

>  <SCORE.INTRA.VDW>
0.60758

>  <SCORE.INTRA.VDW.0>
-2.87247

>  <SCORE.INTRA.norm>
-0.0461765

>  <SCORE.RESTR>
0

>  <SCORE.RESTR.CAVITY>
0

>  <SCORE.RESTR.norm>
0

>  <SCORE.SYSTEM>
-13.2402

>  <SCORE.SYSTEM.CONST>
0

>  <SCORE.SYSTEM.DIHEDRAL>
3.29218

>  <SCORE.SYSTEM.POLAR>
-4.30928

>  <SCORE.SYSTEM.REPUL>
0.00414572

>  <SCORE.SYSTEM.VDW>
-0.255506

>  <SCORE.SYSTEM.norm>
-0.378293

>  <SCORE.heavy>
35

>  <SCORE.norm>
-1.02716

$$$$

  rDOCK(R)          3D
libRbt.so/2013.1/901 2013/11/27
 36 40  0  0  0  0  0  0  0  0999 V2000
   11.0825  -28.4958   -2.5513 C   0  0  0  0  0  0
   11.7077  -29.8924   -2.6560 C   0  0  0  0  0  0
    9.5475  -28.5599   -2.6467 C   0  0  0  0  0  0
    8.9716  -29.1709   -1.4297 N   0  0  0  0  0  0
    7.5088  -29.3136   -1.5795 C   0  0  0  0  0  0
    7.1462  -30.7243   -2.0046 C   0  0  0  0  0  0
    7.2582  -31.1956   -3.3473 C   0  0  0  0  0  0
    7.7235  -30.2674   -4.4460 C   0  0  0  0  0  0
    6.9610  -32.5582   -3.6438 C   0  0  0  0  0  0
    7.0843  -33.0461   -4.9915 N   0  0  0  0  0  0
    7.5049  -34.2245   -5.3513 C   0  0  0  0  0  0
    7.9673  -35.1282   -4.3908 O   0  0  0  0  0  0
    7.5383  -34.5705   -6.7937 C   0  0  0  0  0  0
    6.3824  -34.9709   -7.4811 C   0  0  0  0  0  0
    6.4487  -35.2928   -8.7988 N   0  0  0  0  0  0
    7.6221  -35.2244   -9.4811 C   0  0  0  0  0  0
    7.6772  -35.6295  -10.9162 C   0  0  0  0  0  0
    8.7550  -34.8379   -8.8400 N   0  0  0  0  0  0
    8.7372  -34.5079   -7.5231 C   0  0  0  0  0  0
    6.4766  -33.3944   -2.6191 C   0  0  0  0  0  0
    6.3639  -32.8887   -1.3700 N   0  0  0  0  0  0
    5.9413  -33.4794   -0.2444 C   0  0  0  0  0  0
    6.0203  -32.5366    0.7638 C   0  0  0  0  0  0
    6.4878  -31.3660    0.2688 N   0  0  0  0  0  0
    6.6825  -31.6299   -1.0417 C   0  0  0  0  0  0
    9.3028  -28.3480   -0.2470 C   0  0  0  0  0  0
   10.8179  -28.3092   -0.0477 C   0  0  0  0  0  0
   11.4697  -27.8541   -1.2836 N   0  0  0  0  0  0
   12.3704  -26.7277   -1.2521 C   0  0  0  0  0  0
   12.1740  -25.7991   -0.4197 O   0  0  0  0  0  0
   13.5893  -26.6638   -2.1528 C   0  0  0  0  0  0
   14.5354  -25.5320   -1.7422 C   0  0  0  0  0  0
   15.6623  -26.1677   -0.9265 C   0  0  0  0  0  0
   15.4548  -27.6786   -0.9676 C   0  0  0  0  0  0
   14.4175  -27.9409   -2.0471 C   0  0  0  0  0  0
    8.2752  -36.0627   -4.6251 H   0  0  0  0  0  0
  1  2  1  0  0  0
  1  3  1  0  0  0
  3  4  1  0  0  0
  4  5  1  0  0  0
  5  6  1  0  0  0
  6  7  2  0  0  0
  7  8  1  0  0  0
  7  9  1  0  0  0
  9 10  1  0  0  0
 10 11  2  0  0  0
 11 12  1  0  0  0
 11 13  1  0  0  0
 13 14  2  0  0  0
 14 15  1  0  0  0
 15 16  2  0  0  0
 16 17  1  0  0  0
 16 18  1  0  0  0
 18 19  2  0  0  0
  9 20  2  0  0  0
 20 21  1  0  0  0
 21 22  1  0  0  0
 22 23  2  0  0  0
 23 24  1  0  0  0
 24 25  2  0  0  0
  4 26  1  0  0  0
 26 27  1  0  0  0
 27 28  1  0  0  0
 28 29  1  0  0  0
 29 30  2  0  0  0
 29 31  1  0  0  0
 31 32  1  0  0  0
 32 33  1  0  0  0
 33 34  1  0  0  0
 34 35  1  0  0  0
 28  1  1  0  0  0
 35 31  1  0  0  0
 25  6  1  0  0  0
 19 13  1  0  0  0
 25 21  1  0  0  0
 12 36  1  0  0  0
M  END
>  <CHROM.0>
-153.19005390,3.32350857,-169.16774370,58.97558972,177.32442844,12.68106750
76.55221797,-56.95434924,-155.93892690

>  <CHROM.1>
98.20227895,-79.19292962,143.20754306,178.04517831,-80.11211726,-168.27174224
9.24428572,-30.92775717,-3.24926906,-0.91068365,-0.58024775,-2.07987085

>  <Name>

>  <RI>
1.24701e+07

>  <Rbt.Current_Directory>
/extra/banzai2/j5wagner/CELPP/2016_10_17_rdock_implementation/normal_run/tutorialVideo/tutorial_rdock_implementation/full_week_run/4-docking/5m96/hiTanimoto_5iz0_docking

>  <Rbt.Executable>
rbdock ($Id: //depot/dev/client3/rdock/2013.1/src/exe/rbdock.cxx#4 $)

>  <Rbt.Library>
libRbt.so (2013.1, Build901 2013/11/27)

>  <Rbt.Parameter_File>
/home/j5wagner/env_00/source/rDock/rDock_2013.1_src//data/scripts/dock.prm

>  <Rbt.Receptor>
/extra/banzai2/j5wagner/CELPP/2016_10_17_rdock_implementation/normal_run/tutorialVideo/tutorial_rdock_implementation/full_week_run/4-docking/5m96/hiTanimoto_5iz0_tech_prep/rDockGridGenInput.prm

>  <SCORE>
-17.5177

>  <SCORE.INTER>
-8.44611

>  <SCORE.INTER.CONST>
1

>  <SCORE.INTER.POLAR>
-0.858901

>  <SCORE.INTER.REPUL>
0

>  <SCORE.INTER.ROT>
5

>  <SCORE.INTER.VDW>
-15.9258

>  <SCORE.INTER.norm>
-0.241317

>  <SCORE.INTRA>
4.82156

>  <SCORE.INTRA.DIHEDRAL>
8.34175

>  <SCORE.INTRA.DIHEDRAL.0>
9.74364

>  <SCORE.INTRA.POLAR>
0

>  <SCORE.INTRA.POLAR.0>
0

>  <SCORE.INTRA.REPUL>
-0.108387

>  <SCORE.INTRA.REPUL.0>
0.108387

>  <SCORE.INTRA.VDW>
1.19262

>  <SCORE.INTRA.VDW.0>
-2.87247

>  <SCORE.INTRA.norm>
0.137759

>  <SCORE.RESTR>
0

>  <SCORE.RESTR.CAVITY>
0

>  <SCORE.RESTR.norm>
0

>  <SCORE.SYSTEM>
-13.8932

>  <SCORE.SYSTEM.CONST>
0

>  <SCORE.SYSTEM.DIHEDRAL>
3.63518

>  <SCORE.SYSTEM.POLAR>
-4.28538

>  <SCORE.SYSTEM.REPUL>
0.0214053

>  <SCORE.SYSTEM.VDW>
-1.2475

>  <SCORE.SYSTEM.norm>
-0.396948

>  <SCORE.heavy>
35

>  <SCORE.norm>
-0.500507

$$$$

  rDOCK(R)          3D
libRbt.so/2013.1/901 2013/11/27
 36 40  0  0  0  0  0  0  0  0999 V2000
    7.9114  -31.2782   -4.6881 C   0  0  0  0  0  0
    7.1189  -30.4823   -3.6436 C   0  0  0  0  0  0
    9.0042  -30.4134   -5.3415 C   0  0  0  0  0  0
   10.0924  -30.1299   -4.3816 N   0  0  0  0  0  0
   11.0822  -29.2199   -4.9939 C   0  0  0  0  0  0
   11.3833  -28.0530   -4.0719 C   0  0  0  0  0  0
   12.6293  -27.8844   -3.3963 C   0  0  0  0  0  0
   13.7251  -28.9147   -3.5467 C   0  0  0  0  0  0
   12.8499  -26.7201   -2.6033 C   0  0  0  0  0  0
   14.1074  -26.5343   -1.9297 N   0  0  0  0  0  0
   14.2914  -26.4601   -0.6431 C   0  0  0  0  0  0
   13.1963  -26.4816    0.2250 O   0  0  0  0  0  0
   15.6695  -26.2965   -0.1184 C   0  0  0  0  0  0
   15.9144  -26.0482    1.2408 C   0  0  0  0  0  0
   17.1873  -25.8910    1.6876 N   0  0  0  0  0  0
   18.2460  -25.9812    0.8402 C   0  0  0  0  0  0
   19.6311  -25.7569    1.3479 C   0  0  0  0  0  0
   18.0366  -26.2227   -0.4795 N   0  0  0  0  0  0
   16.7818  -26.3854   -0.9717 C   0  0  0  0  0  0
   11.7995  -25.7980   -2.4297 C   0  0  0  0  0  0
   10.6301  -26.0207   -3.0712 N   0  0  0  0  0  0
    9.5036  -25.2957   -3.0697 C   0  0  0  0  0  0
    8.5999  -25.9471   -3.8887 C   0  0  0  0  0  0
    9.1598  -27.0711   -4.3958 N   0  0  0  0  0  0
   10.4024  -27.0744   -3.8660 C   0  0  0  0  0  0
   10.7307  -31.3934   -3.9552 C   0  0  0  0  0  0
    9.7135  -32.2695   -3.2242 C   0  0  0  0  0  0
    8.5276  -32.4644   -4.0699 N   0  0  0  0  0  0
    8.0680  -33.7979   -4.3726 C   0  0  0  0  0  0
    8.9062  -34.7376   -4.4632 O   0  0  0  0  0  0
    6.5913  -34.1116   -4.5195 C   0  0  0  0  0  0
    6.3401  -35.1380   -5.6278 C   0  0  0  0  0  0
    6.1551  -36.4940   -4.9450 C   0  0  0  0  0  0
    6.1646  -36.2483   -3.4393 C   0  0  0  0  0  0
    6.0356  -34.7460   -3.2480 C   0  0  0  0  0  0
   12.2481  -26.6244   -0.0970 H   0  0  0  0  0  0
  1  2  1  0  0  0
  1  3  1  0  0  0
  3  4  1  0  0  0
  4  5  1  0  0  0
  5  6  1  0  0  0
  6  7  2  0  0  0
  7  8  1  0  0  0
  7  9  1  0  0  0
  9 10  1  0  0  0
 10 11  2  0  0  0
 11 12  1  0  0  0
 11 13  1  0  0  0
 13 14  2  0  0  0
 14 15  1  0  0  0
 15 16  2  0  0  0
 16 17  1  0  0  0
 16 18  1  0  0  0
 18 19  2  0  0  0
  9 20  2  0  0  0
 20 21  1  0  0  0
 21 22  1  0  0  0
 22 23  2  0  0  0
 23 24  1  0  0  0
 24 25  2  0  0  0
  4 26  1  0  0  0
 26 27  1  0  0  0
 27 28  1  0  0  0
 28 29  1  0  0  0
 29 30  2  0  0  0
 29 31  1  0  0  0
 31 32  1  0  0  0
 32 33  1  0  0  0
 33 34  1  0  0  0
 34 35  1  0  0  0
 28  1  1  0  0  0
 35 31  1  0  0  0
 25  6  1  0  0  0
 19 13  1  0  0  0
 25 21  1  0  0  0
 12 36  1  0  0  0
M  END
>  <CHROM.0>
-151.18531191,-110.80937157,69.84486877,60.12524509,-170.54460193,12.18302391
74.34346893,-65.02828851,-23.11346988

>  <CHROM.1>
130.16509283,109.92168106,-117.41364009,4.78194238,172.12517003,142.76902333
11.28229762,-29.32167256,-2.80527253,2.51475595,0.51040600,3.04908472

>  <Name>

>  <RI>
1.24701e+07

>  <Rbt.Current_Directory>
/extra/banzai2/j5wagner/CELPP/2016_10_17_rdock_implementation/normal_run/tutorialVideo/tutorial_rdock_implementation/full_week_run/4-docking/5m96/hiTanimoto_5iz0_docking

>  <Rbt.Executable>
rbdock ($Id: //depot/dev/client3/rdock/2013.1/src/exe/rbdock.cxx#4 $)

>  <Rbt.Library>
libRbt.so (2013.1, Build901 2013/11/27)

>  <Rbt.Parameter_File>
/home/j5wagner/env_00/source/rDock/rDock_2013.1_src//data/scripts/dock.prm

>  <Rbt.Receptor>
/extra/banzai2/j5wagner/CELPP/2016_10_17_rdock_implementation/normal_run/tutorialVideo/tutorial_rdock_implementation/full_week_run/4-docking/5m96/hiTanimoto_5iz0_tech_prep/rDockGridGenInput.prm

>  <SCORE>
-33.0847

>  <SCORE.INTER>
-20.1862

>  <SCORE.INTER.CONST>
1

>  <SCORE.INTER.POLAR>
-0.91938

>  <SCORE.INTER.REPUL>
0.00163723

>  <SCORE.INTER.ROT>
5

>  <SCORE.INTER.VDW>
-27.4685

>  <SCORE.INTER.norm>
-0.576748

>  <SCORE.INTRA>
-0.0562992

>  <SCORE.INTRA.DIHEDRAL>
1.38705

>  <SCORE.INTRA.DIHEDRAL.0>
9.74364

>  <SCORE.INTRA.POLAR>
0

>  <SCORE.INTRA.POLAR.0>
0

>  <SCORE.INTRA.REPUL>
-0.104856

>  <SCORE.INTRA.REPUL.0>
0.108387

>  <SCORE.INTRA.VDW>
-0.225545

>  <SCORE.INTRA.VDW.0>
-2.87247

>  <SCORE.INTRA.norm>
-0.00160855

>  <SCORE.RESTR>
0

>  <SCORE.RESTR.CAVITY>
0

>  <SCORE.RESTR.norm>
0

>  <SCORE.SYSTEM>
-12.8422

>  <SCORE.SYSTEM.CONST>
0

>  <SCORE.SYSTEM.DIHEDRAL>
7.74407

>  <SCORE.SYSTEM.POLAR>
-4.06434

>  <SCORE.SYSTEM.REPUL>
0.0291494

>  <SCORE.SYSTEM.VDW>
-3.04126

>  <SCORE.SYSTEM.norm>
-0.366921

>  <SCORE.heavy>
35

>  <SCORE.norm>
-0.945278

$$$$

  rDOCK(R)          3D
libRbt.so/2013.1/901 2013/11/27
 36 40  0  0  0  0  0  0  0  0999 V2000
   10.3315  -30.6221   -3.2636 C   0  0  0  0  0  0
   10.0115  -30.1505   -4.6876 C   0  0  0  0  0  0
   10.8002  -29.4537   -2.3780 C   0  0  0  0  0  0
    9.6778  -28.5387   -2.0798 N   0  0  0  0  0  0
   10.1652  -27.3741   -1.3123 C   0  0  0  0  0  0
   11.0592  -26.4993   -2.1712 C   0  0  0  0  0  0
   10.6304  -25.8915   -3.3895 C   0  0  0  0  0  0
    9.2325  -26.1315   -3.9120 C   0  0  0  0  0  0
   11.5170  -25.0274   -4.0969 C   0  0  0  0  0  0
   11.0894  -24.3991   -5.3183 N   0  0  0  0  0  0
   11.5028  -24.6835   -6.5196 C   0  0  0  0  0  0
   12.5136  -25.6300   -6.7083 O   0  0  0  0  0  0
   10.9275  -23.9506   -7.6743 C   0  0  0  0  0  0
    9.8313  -23.0873   -7.5253 C   0  0  0  0  0  0
    9.3202  -22.4404   -8.6045 N   0  0  0  0  0  0
    9.8594  -22.6020   -9.8415 C   0  0  0  0  0  0
    9.2491  -21.9171  -11.0184 C   0  0  0  0  0  0
   10.9218  -23.4301  -10.0127 N   0  0  0  0  0  0
   11.4655  -24.0986   -8.9634 C   0  0  0  0  0  0
   12.8334  -24.8584   -3.6254 C   0  0  0  0  0  0
   13.1955  -25.4796   -2.4802 N   0  0  0  0  0  0
   14.3703  -25.4673   -1.8365 C   0  0  0  0  0  0
   14.2255  -26.2572   -0.7110 C   0  0  0  0  0  0
   12.9688  -26.7590   -0.6550 N   0  0  0  0  0  0
   12.3761  -26.2565   -1.7599 C   0  0  0  0  0  0
    8.6247  -29.2590   -1.3329 C   0  0  0  0  0  0
    8.0576  -30.3890   -2.1921 C   0  0  0  0  0  0
    9.1496  -31.2562   -2.6555 N   0  0  0  0  0  0
    9.1009  -32.6758   -2.4030 C   0  0  0  0  0  0
    8.5340  -33.1011   -1.3583 O   0  0  0  0  0  0
    9.6576  -33.6760   -3.3981 C   0  0  0  0  0  0
   11.1722  -33.5235   -3.5640 C   0  0  0  0  0  0
   11.8253  -34.6097   -2.7078 C   0  0  0  0  0  0
   10.7045  -35.4795   -2.1467 C   0  0  0  0  0  0
    9.4464  -35.1075   -2.9141 C   0  0  0  0  0  0
   12.9793  -26.0912   -5.9380 H   0  0  0  0  0  0
  1  2  1  0  0  0
  1  3  1  0  0  0
  3  4  1  0  0  0
  4  5  1  0  0  0
  5  6  1  0  0  0
  6  7  2  0  0  0
  7  8  1  0  0  0
  7  9  1  0  0  0
  9 10  1  0  0  0
 10 11  2  0  0  0
 11 12  1  0  0  0
 11 13  1  0  0  0
 13 14  2  0  0  0
 14 15  1  0  0  0
 15 16  2  0  0  0
 16 17  1  0  0  0
 16 18  1  0  0  0
 18 19  2  0  0  0
  9 20  2  0  0  0
 20 21  1  0  0  0
 21 22  1  0  0  0
 22 23  2  0  0  0
 23 24  1  0  0  0
 24 25  2  0  0  0
  4 26  1  0  0  0
 26 27  1  0  0  0
 27 28  1  0  0  0
 28 29  1  0  0  0
 29 30  2  0  0  0
 29 31  1  0  0  0
 31 32  1  0  0  0
 32 33  1  0  0  0
 33 34  1  0  0  0
 34 35  1  0  0  0
 28  1  1  0  0  0
 35 31  1  0  0  0
 25  6  1  0  0  0
 19 13  1  0  0  0
 25 21  1  0  0  0
 12 36  1  0  0  0
M  END
>  <CHROM.0>
-13.88176251,-26.84596713,71.18381683,-50.79895747,169.13389454,14.12755524
-47.58867640,61.79989899,-23.82118887

>  <CHROM.1>
68.21380659,58.91942275,-108.88672282,-2.59351883,-8.42391956,64.40729310
10.72779428,-27.78945901,-4.14663650,1.71079103,1.05074427,2.48519462

>  <Name>

>  <RI>
1.24701e+07

>  <Rbt.Current_Directory>
/extra/banzai2/j5wagner/CELPP/2016_10_17_rdock_implementation/normal_run/tutorialVideo/tutorial_rdock_implementation/full_week_run/4-docking/5m96/hiTanimoto_5iz0_docking

>  <Rbt.Executable>
rbdock ($Id: //depot/dev/client3/rdock/2013.1/src/exe/rbdock.cxx#4 $)

>  <Rbt.Library>
libRbt.so (2013.1, Build901 2013/11/27)

>  <Rbt.Parameter_File>
/home/j5wagner/env_00/source/rDock/rDock_2013.1_src//data/scripts/dock.prm

>  <Rbt.Receptor>
/extra/banzai2/j5wagner/CELPP/2016_10_17_rdock_implementation/normal_run/tutorialVideo/tutorial_rdock_implementation/full_week_run/4-docking/5m96/hiTanimoto_5iz0_tech_prep/rDockGridGenInput.prm

>  <SCORE>
-24.2414

>  <SCORE.INTER>
-14.2797

>  <SCORE.INTER.CONST>
1

>  <SCORE.INTER.POLAR>
-0.314517

>  <SCORE.INTER.REPUL>
0

>  <SCORE.INTER.ROT>
5

>  <SCORE.INTER.VDW>
-23.6103

>  <SCORE.INTER.norm>
-0.407991

>  <SCORE.INTRA>
-0.669388

>  <SCORE.INTRA.DIHEDRAL>
-2.39887

>  <SCORE.INTRA.DIHEDRAL.0>
9.74364

>  <SCORE.INTRA.POLAR>
0

>  <SCORE.INTRA.POLAR.0>
0

>  <SCORE.INTRA.REPUL>
-0.108387

>  <SCORE.INTRA.REPUL.0>
0.108387

>  <SCORE.INTRA.VDW>
1.07198

>  <SCORE.INTRA.VDW.0>
-2.87247

>  <SCORE.INTRA.norm>
-0.0191254

>  <SCORE.RESTR>
0

>  <SCORE.RESTR.CAVITY>
0

>  <SCORE.RESTR.norm>
0

>  <SCORE.SYSTEM>
-9.29232

>  <SCORE.SYSTEM.CONST>
0

>  <SCORE.SYSTEM.DIHEDRAL>
3.89856

>  <SCORE.SYSTEM.POLAR>
-2.93886

>  <SCORE.SYSTEM.REPUL>
0.0274144

>  <SCORE.SYSTEM.VDW>
-1.38655

>  <SCORE.SYSTEM.norm>
-0.265495

>  <SCORE.heavy>
35

>  <SCORE.norm>
-0.692611

$$$$

  rDOCK(R)          3D
libRbt.so/2013.1/901 2013/11/27
 36 40  0  0  0  0  0  0  0  0999 V2000
   10.5967  -30.5615   -4.0931 C   0  0  0  0  0  0
   11.7624  -30.0960   -4.9745 C   0  0  0  0  0  0
   10.1623  -29.4598   -3.1099 C   0  0  0  0  0  0
    9.4930  -28.3526   -3.8254 N   0  0  0  0  0  0
    9.1710  -27.2624   -2.8818 C   0  0  0  0  0  0
   10.2584  -26.2042   -2.8903 C   0  0  0  0  0  0
   11.4783  -26.3228   -2.1588 C   0  0  0  0  0  0
   11.7313  -27.5311   -1.2864 C   0  0  0  0  0  0
   12.4750  -25.3104   -2.2804 C   0  0  0  0  0  0
   13.7135  -25.4278   -1.5581 N   0  0  0  0  0  0
   14.8696  -25.7613   -2.0552 C   0  0  0  0  0  0
   14.9764  -26.1257   -3.4002 O   0  0  0  0  0  0
   16.0549  -25.8029   -1.1637 C   0  0  0  0  0  0
   15.9516  -25.5369    0.2102 C   0  0  0  0  0  0
   17.0578  -25.5711    0.9973 N   0  0  0  0  0  0
   18.2786  -25.8724    0.4815 C   0  0  0  0  0  0
   19.4855  -25.8561    1.3588 C   0  0  0  0  0  0
   18.4057  -26.1357   -0.8445 N   0  0  0  0  0  0
   17.3281  -26.1120   -1.6702 C   0  0  0  0  0  0
   12.2008  -24.1657   -3.0538 C   0  0  0  0  0  0
   11.0175  -24.0922   -3.7042 N   0  0  0  0  0  0
   10.5362  -23.1238   -4.4949 C   0  0  0  0  0  0
    9.2844  -23.5298   -4.9189 C   0  0  0  0  0  0
    8.9877  -24.7427   -4.3945 N   0  0  0  0  0  0
   10.0781  -25.0457   -3.6569 C   0  0  0  0  0  0
    8.2714  -28.8494   -4.4938 C   0  0  0  0  0  0
    8.6422  -29.8951   -5.5453 C   0  0  0  0  0  0
    9.4489  -30.9564   -4.9270 N   0  0  0  0  0  0
    9.0408  -32.3351   -5.0452 C   0  0  0  0  0  0
    7.8115  -32.6150   -5.1094 O   0  0  0  0  0  0
   10.0580  -33.4542   -5.1613 C   0  0  0  0  0  0
   10.6922  -33.7829   -3.8068 C   0  0  0  0  0  0
    9.9767  -35.0234   -3.2697 C   0  0  0  0  0  0
    9.0198  -35.5013   -4.3575 C   0  0  0  0  0  0
    9.3982  -34.7500   -5.6234 C   0  0  0  0  0  0
   15.8568  -26.3812   -3.8276 H   0  0  0  0  0  0
  1  2  1  0  0  0
  1  3  1  0  0  0
  3  4  1  0  0  0
  4  5  1  0  0  0
  5  6  1  0  0  0
  6  7  2  0  0  0
  7  8  1  0  0  0
  7  9  1  0  0  0
  9 10  1  0  0  0
 10 11  2  0  0  0
 11 12  1  0  0  0
 11 13  1  0  0  0
 13 14  2  0  0  0
 14 15  1  0  0  0
 15 16  2  0  0  0
 16 17  1  0  0  0
 16 18  1  0  0  0
 18 19  2  0  0  0
  9 20  2  0  0  0
 20 21  1  0  0  0
 21 22  1  0  0  0
 22 23  2  0  0  0
 23 24  1  0  0  0
 24 25  2  0  0  0
  4 26  1  0  0  0
 26 27  1  0  0  0
 27 28  1  0  0  0
 28 29  1  0  0  0
 29 30  2  0  0  0
 29 31  1  0  0  0
 31 32  1  0  0  0
 32 33  1  0  0  0
 33 34  1  0  0  0
 34 35  1  0  0  0
 28  1  1  0  0  0
 35 31  1  0  0  0
 25  6  1  0  0  0
 19 13  1  0  0  0
 25 21  1  0  0  0
 12 36  1  0  0  0
M  END
>  <CHROM.0>
-153.02950070,-120.74296080,-167.41594806,59.61860931,-166.15721880,15.78755857
77.01862067,65.69449351,-13.19611845

>  <CHROM.1>
95.16933971,-81.44660717,104.46576199,179.29620076,2.25085101,77.12730545
11.91850879,-28.10992873,-3.07150117,-2.38023925,-0.47194432,0.04225840

>  <Name>

>  <RI>
1.24701e+07

>  <Rbt.Current_Directory>
/extra/banzai2/j5wagner/CELPP/2016_10_17_rdock_implementation/normal_run/tutorialVideo/tutorial_rdock_implementation/full_week_run/4-docking/5m96/hiTanimoto_5iz0_docking

>  <Rbt.Executable>
rbdock ($Id: //depot/dev/client3/rdock/2013.1/src/exe/rbdock.cxx#4 $)

>  <Rbt.Library>
libRbt.so (2013.1, Build901 2013/11/27)

>  <Rbt.Parameter_File>
/home/j5wagner/env_00/source/rDock/rDock_2013.1_src//data/scripts/dock.prm

>  <Rbt.Receptor>
/extra/banzai2/j5wagner/CELPP/2016_10_17_rdock_implementation/normal_run/tutorialVideo/tutorial_rdock_implementation/full_week_run/4-docking/5m96/hiTanimoto_5iz0_tech_prep/rDockGridGenInput.prm

>  <SCORE>
-35.7925

>  <SCORE.INTER>
-23.6611

>  <SCORE.INTER.CONST>
1

>  <SCORE.INTER.POLAR>
-1.96993

>  <SCORE.INTER.REPUL>
0

>  <SCORE.INTER.ROT>
5

>  <SCORE.INTER.VDW>
-27.3633

>  <SCORE.INTER.norm>
-0.67603

>  <SCORE.INTRA>
0.627651

>  <SCORE.INTRA.DIHEDRAL>
-0.292305

>  <SCORE.INTRA.DIHEDRAL.0>
9.74364

>  <SCORE.INTRA.POLAR>
0

>  <SCORE.INTRA.POLAR.0>
0

>  <SCORE.INTRA.REPUL>
-0.108387

>  <SCORE.INTRA.REPUL.0>
0.108387

>  <SCORE.INTRA.VDW>
1.31574

>  <SCORE.INTRA.VDW.0>
-2.87247

>  <SCORE.INTRA.norm>
0.0179329

>  <SCORE.RESTR>
0

>  <SCORE.RESTR.CAVITY>
0

>  <SCORE.RESTR.norm>
0

>  <SCORE.SYSTEM>
-12.7591

>  <SCORE.SYSTEM.CONST>
0

>  <SCORE.SYSTEM.DIHEDRAL>
7.32976

>  <SCORE.SYSTEM.POLAR>
-4.00505

>  <SCORE.SYSTEM.REPUL>
0.0331137

>  <SCORE.SYSTEM.VDW>
-2.97241

>  <SCORE.SYSTEM.norm>
-0.364546

>  <SCORE.heavy>
35

>  <SCORE.norm>
-1.02264

$$$$

  rDOCK(R)          3D
libRbt.so/2013.1/901 2013/11/27
 36 40  0  0  0  0  0  0  0  0999 V2000
    8.2958  -32.7156   -2.6920 C   0  0  0  0  0  0
    9.8272  -32.7946   -2.6580 C   0  0  0  0  0  0
    7.7891  -31.3921   -2.0913 C   0  0  0  0  0  0
    8.1064  -30.2562   -2.9829 N   0  0  0  0  0  0
    7.7009  -28.9858   -2.3469 C   0  0  0  0  0  0
    8.9053  -28.0940   -2.1099 C   0  0  0  0  0  0
    9.3572  -27.1156   -3.0460 C   0  0  0  0  0  0
    8.6536  -26.9463   -4.3731 C   0  0  0  0  0  0
   10.4572  -26.2730   -2.7099 C   0  0  0  0  0  0
   10.9111  -25.2746   -3.6410 N   0  0  0  0  0  0
   12.1177  -24.7943   -3.7318 C   0  0  0  0  0  0
   13.1005  -25.1882   -2.8195 O   0  0  0  0  0  0
   12.4171  -23.7856   -4.7778 C   0  0  0  0  0  0
   11.4204  -23.2992   -5.6375 C   0  0  0  0  0  0
   11.7294  -22.3848   -6.5929 N   0  0  0  0  0  0
   12.9966  -21.9136   -6.7314 C   0  0  0  0  0  0
   13.3194  -20.9455   -7.8201 C   0  0  0  0  0  0
   13.9794  -22.3664   -5.9111 N   0  0  0  0  0  0
   13.7178  -23.2812   -4.9425 C   0  0  0  0  0  0
   11.1353  -26.4808   -1.4931 C   0  0  0  0  0  0
   10.6816  -27.4402   -0.6550 N   0  0  0  0  0  0
   11.1459  -27.8161    0.5441 C   0  0  0  0  0  0
   10.3288  -28.8364    0.9947 C   0  0  0  0  0  0
    9.3627  -29.0949    0.0815 N   0  0  0  0  0  0
    9.6205  -28.2161   -0.9116 C   0  0  0  0  0  0
    7.4300  -30.4331   -4.2855 C   0  0  0  0  0  0
    7.9497  -31.6947   -4.9747 C   0  0  0  0  0  0
    7.8059  -32.8472   -4.0745 N   0  0  0  0  0  0
    7.0934  -34.0221   -4.5141 C   0  0  0  0  0  0
    6.1338  -33.8986   -5.3251 O   0  0  0  0  0  0
    7.5129  -35.4122   -4.0756 C   0  0  0  0  0  0
    6.6441  -36.4942   -4.7231 C   0  0  0  0  0  0
    7.4390  -37.0567   -5.9025 C   0  0  0  0  0  0
    8.8185  -36.4057   -5.8708 C   0  0  0  0  0  0
    8.9397  -35.7207   -4.5194 C   0  0  0  0  0  0
   14.0253  -24.7791   -2.8041 H   0  0  0  0  0  0
  1  2  1  0  0  0
  1  3  1  0  0  0
  3  4  1  0  0  0
  4  5  1  0  0  0
  5  6  1  0  0  0
  6  7  2  0  0  0
  7  8  1  0  0  0
  7  9  1  0  0  0
  9 10  1  0  0  0
 10 11  2  0  0  0
 11 12  1  0  0  0
 11 13  1  0  0  0
 13 14  2  0  0  0
 14 15  1  0  0  0
 15 16  2  0  0  0
 16 17  1  0  0  0
 16 18  1  0  0  0
 18 19  2  0  0  0
  9 20  2  0  0  0
 20 21  1  0  0  0
 21 22  1  0  0  0
 22 23  2  0  0  0
 23 24  1  0  0  0
 24 25  2  0  0  0
  4 26  1  0  0  0
 26 27  1  0  0  0
 27 28  1  0  0  0
 28 29  1  0  0  0
 29 30  2  0  0  0
 29 31  1  0  0  0
 31 32  1  0  0  0
 32 33  1  0  0  0
 33 34  1  0  0  0
 34 35  1  0  0  0
 28  1  1  0  0  0
 35 31  1  0  0  0
 25  6  1  0  0  0
 19 13  1  0  0  0
 25 21  1  0  0  0
 12 36  1  0  0  0
M  END
>  <CHROM.0>
-150.09277325,-116.62549326,-167.12649972,58.47562177,-171.76130274,12.70677276
-48.38326664,64.21371044,-111.10415724

>  <CHROM.1>
117.55437023,91.79360568,-152.75626131,-174.46193869,2.48123470,-177.39878117
9.77789394,-28.91205353,-3.66769133,3.09958326,-1.16735107,-1.67002208

>  <Name>

>  <RI>
1.24701e+07

>  <Rbt.Current_Directory>
/extra/banzai2/j5wagner/CELPP/2016_10_17_rdock_implementation/normal_run/tutorialVideo/tutorial_rdock_implementation/full_week_run/4-docking/5m96/hiTanimoto_5iz0_docking

>  <Rbt.Executable>
rbdock ($Id: //depot/dev/client3/rdock/2013.1/src/exe/rbdock.cxx#4 $)

>  <Rbt.Library>
libRbt.so (2013.1, Build901 2013/11/27)

>  <Rbt.Parameter_File>
/home/j5wagner/env_00/source/rDock/rDock_2013.1_src//data/scripts/dock.prm

>  <Rbt.Receptor>
/extra/banzai2/j5wagner/CELPP/2016_10_17_rdock_implementation/normal_run/tutorialVideo/tutorial_rdock_implementation/full_week_run/4-docking/5m96/hiTanimoto_5iz0_tech_prep/rDockGridGenInput.prm

>  <SCORE>
-21.4386

>  <SCORE.INTER>
-10.7343

>  <SCORE.INTER.CONST>
1

>  <SCORE.INTER.POLAR>
0

>  <SCORE.INTER.REPUL>
0.0202189

>  <SCORE.INTER.ROT>
5

>  <SCORE.INTER.VDW>
-21.2354

>  <SCORE.INTER.norm>
-0.306695

>  <SCORE.INTRA>
-1.81152

>  <SCORE.INTRA.DIHEDRAL>
-4.68163

>  <SCORE.INTRA.DIHEDRAL.0>
9.74364

>  <SCORE.INTRA.POLAR>
0

>  <SCORE.INTRA.POLAR.0>
0

>  <SCORE.INTRA.REPUL>
-0.108387

>  <SCORE.INTRA.REPUL.0>
0.108387

>  <SCORE.INTRA.VDW>
1.07123

>  <SCORE.INTRA.VDW.0>
-2.87247

>  <SCORE.INTRA.norm>
-0.0517578

>  <SCORE.RESTR>
0.946019

>  <SCORE.RESTR.CAVITY>
0.946019

>  <SCORE.RESTR.norm>
0.0270291

>  <SCORE.SYSTEM>
-9.83877

>  <SCORE.SYSTEM.CONST>
0

>  <SCORE.SYSTEM.DIHEDRAL>
10.7194

>  <SCORE.SYSTEM.POLAR>
-3.45811

>  <SCORE.SYSTEM.REPUL>
0.0263996

>  <SCORE.SYSTEM.VDW>
-3.57292

>  <SCORE.SYSTEM.norm>
-0.281108

>  <SCORE.heavy>
35

>  <SCORE.norm>
-0.612531

$$$$

  rDOCK(R)          3D
libRbt.so/2013.1/901 2013/11/27
 36 40  0  0  0  0  0  0  0  0999 V2000
   10.3867  -32.2091   -3.6142 C   0  0  0  0  0  0
   11.9082  -32.0918   -3.4600 C   0  0  0  0  0  0
    9.6691  -30.9668   -3.0567 C   0  0  0  0  0  0
    9.9068  -29.7916   -3.9217 N   0  0  0  0  0  0
    9.2934  -28.5893   -3.3209 C   0  0  0  0  0  0
   10.2597  -27.4199   -3.3504 C   0  0  0  0  0  0
   11.4640  -27.3741   -2.5855 C   0  0  0  0  0  0
   11.8212  -28.5103   -1.6547 C   0  0  0  0  0  0
   12.3484  -26.2648   -2.7281 C   0  0  0  0  0  0
   13.5713  -26.2161   -1.9720 N   0  0  0  0  0  0
   14.7766  -26.3641   -2.4414 C   0  0  0  0  0  0
   14.9713  -26.6766   -3.7896 O   0  0  0  0  0  0
   15.9312  -26.2523   -1.5163 C   0  0  0  0  0  0
   15.7564  -25.9755   -0.1518 C   0  0  0  0  0  0
   16.8348  -25.8674    0.6665 N   0  0  0  0  0  0
   18.0972  -26.0347    0.1918 C   0  0  0  0  0  0
   19.2672  -25.8633    1.1020 C   0  0  0  0  0  0
   18.2939  -26.3053   -1.1242 N   0  0  0  0  0  0
   17.2463  -26.4213   -1.9801 C   0  0  0  0  0  0
   11.9741  -25.1899   -3.5576 C   0  0  0  0  0  0
   10.8088  -25.2731   -4.2386 N   0  0  0  0  0  0
   10.2483  -24.3967   -5.0826 C   0  0  0  0  0  0
    9.0603  -24.9543   -5.5179 C   0  0  0  0  0  0
    8.8817  -26.1695   -4.9476 N   0  0  0  0  0  0
    9.9771  -26.3208   -4.1715 C   0  0  0  0  0  0
    9.3624  -30.0418   -5.2733 C   0  0  0  0  0  0
   10.0918  -31.2202   -5.9182 C   0  0  0  0  0  0
   10.0272  -32.3898   -5.0309 N   0  0  0  0  0  0
    9.5077  -33.6421   -5.5238 C   0  0  0  0  0  0
    8.6064  -33.6351   -6.4078 O   0  0  0  0  0  0
   10.0665  -34.9711   -5.0523 C   0  0  0  0  0  0
    9.5960  -35.3099   -3.6350 C   0  0  0  0  0  0
    8.4364  -36.2973   -3.7751 C   0  0  0  0  0  0
    8.3102  -36.6409   -5.2562 C   0  0  0  0  0  0
    9.5692  -36.1174   -5.9278 C   0  0  0  0  0  0
   14.2059  -26.7656   -4.4447 H   0  0  0  0  0  0
  1  2  1  0  0  0
  1  3  1  0  0  0
  3  4  1  0  0  0
  4  5  1  0  0  0
  5  6  1  0  0  0
  6  7  2  0  0  0
  7  8  1  0  0  0
  7  9  1  0  0  0
  9 10  1  0  0  0
 10 11  2  0  0  0
 11 12  1  0  0  0
 11 13  1  0  0  0
 13 14  2  0  0  0
 14 15  1  0  0  0
 15 16  2  0  0  0
 16 17  1  0  0  0
 16 18  1  0  0  0
 18 19  2  0  0  0
  9 20  2  0  0  0
 20 21  1  0  0  0
 21 22  1  0  0  0
 22 23  2  0  0  0
 23 24  1  0  0  0
 24 25  2  0  0  0
  4 26  1  0  0  0
 26 27  1  0  0  0
 27 28  1  0  0  0
 28 29  1  0  0  0
 29 30  2  0  0  0
 29 31  1  0  0  0
 31 32  1  0  0  0
 32 33  1  0  0  0
 33 34  1  0  0  0
 34 35  1  0  0  0
 28  1  1  0  0  0
 35 31  1  0  0  0
 25  6  1  0  0  0
 19 13  1  0  0  0
 25 21  1  0  0  0
 12 36  1  0  0  0
M  END
>  <CHROM.0>
6.00680687,-108.28292950,-167.18806121,-50.88313654,5.15440819,10.71494038
74.19782984,60.88188714,-10.09557761

>  <CHROM.1>
133.51917264,-67.21362154,108.79544881,2.18113830,-0.76417450,74.96619971
11.88074009,-29.15679432,-3.39359873,-2.32480924,-0.51626448,-0.01061365

>  <Name>

>  <RI>
1.24701e+07

>  <Rbt.Current_Directory>
/extra/banzai2/j5wagner/CELPP/2016_10_17_rdock_implementation/normal_run/tutorialVideo/tutorial_rdock_implementation/full_week_run/4-docking/5m96/hiTanimoto_5iz0_docking

>  <Rbt.Executable>
rbdock ($Id: //depot/dev/client3/rdock/2013.1/src/exe/rbdock.cxx#4 $)

>  <Rbt.Library>
libRbt.so (2013.1, Build901 2013/11/27)

>  <Rbt.Parameter_File>
/home/j5wagner/env_00/source/rDock/rDock_2013.1_src//data/scripts/dock.prm

>  <Rbt.Receptor>
/extra/banzai2/j5wagner/CELPP/2016_10_17_rdock_implementation/normal_run/tutorialVideo/tutorial_rdock_implementation/full_week_run/4-docking/5m96/hiTanimoto_5iz0_tech_prep/rDockGridGenInput.prm

>  <SCORE>
-21.7412

>  <SCORE.INTER>
-15.4931

>  <SCORE.INTER.CONST>
1

>  <SCORE.INTER.POLAR>
0

>  <SCORE.INTER.REPUL>
0.0280929

>  <SCORE.INTER.ROT>
5

>  <SCORE.INTER.VDW>
-26.0336

>  <SCORE.INTER.norm>
-0.442661

>  <SCORE.INTRA>
-0.332136

>  <SCORE.INTRA.DIHEDRAL>
-0.22177

>  <SCORE.INTRA.DIHEDRAL.0>
9.74364

>  <SCORE.INTRA.POLAR>
0

>  <SCORE.INTRA.POLAR.0>
0

>  <SCORE.INTRA.REPUL>
-0.108387

>  <SCORE.INTRA.REPUL.0>
0.108387

>  <SCORE.INTRA.VDW>
0.320686

>  <SCORE.INTRA.VDW.0>
-2.87247

>  <SCORE.INTRA.norm>
-0.0094896

>  <SCORE.RESTR>
0

>  <SCORE.RESTR.CAVITY>
0

>  <SCORE.RESTR.norm>
0

>  <SCORE.SYSTEM>
-5.9159

>  <SCORE.SYSTEM.CONST>
0

>  <SCORE.SYSTEM.DIHEDRAL>
6.50612

>  <SCORE.SYSTEM.POLAR>
-2.63361

>  <SCORE.SYSTEM.VDW>
-0.214703

>  <SCORE.SYSTEM.norm>
-0.169026

>  <SCORE.heavy>
35

>  <SCORE.norm>
-0.621176

$$$$

  rDOCK(R)          3D
libRbt.so/2013.1/901 2013/11/27
 36 40  0  0  0  0  0  0  0  0999 V2000
    8.9932  -30.5866   -4.1774 C   0  0  0  0  0  0
    8.7993  -29.7918   -5.4748 C   0  0  0  0  0  0
    9.4438  -29.6740   -3.0227 C   0  0  0  0  0  0
    8.3419  -28.7855   -2.5958 N   0  0  0  0  0  0
    8.8197  -27.8514   -1.5557 C   0  0  0  0  0  0
    9.9801  -27.0203   -2.0705 C   0  0  0  0  0  0
   11.2441  -26.9398   -1.4122 C   0  0  0  0  0  0
   11.4759  -27.6742   -0.1115 C   0  0  0  0  0  0
   12.3015  -26.1889   -2.0049 C   0  0  0  0  0  0
   13.5833  -26.1132   -1.3562 N   0  0  0  0  0  0
   14.7475  -26.1709   -1.9359 C   0  0  0  0  0  0
   14.8359  -26.4019   -3.3114 O   0  0  0  0  0  0
   15.9734  -26.0448   -1.1097 C   0  0  0  0  0  0
   17.2494  -26.2727   -1.6472 C   0  0  0  0  0  0
   18.3512  -26.1609   -0.8612 N   0  0  0  0  0  0
   18.2479  -25.8174    0.4497 C   0  0  0  0  0  0
   19.4700  -25.7484    1.3031 C   0  0  0  0  0  0
   17.0250  -25.5895    0.9941 N   0  0  0  0  0  0
   15.8955  -25.6905    0.2474 C   0  0  0  0  0  0
   12.0519  -25.4665   -3.1879 C   0  0  0  0  0  0
   10.8277  -25.5565   -3.7551 N   0  0  0  0  0  0
   10.3575  -24.9780   -4.8682 C   0  0  0  0  0  0
    9.0475  -25.3932   -5.0199 C   0  0  0  0  0  0
    8.7038  -26.2239   -4.0070 N   0  0  0  0  0  0
    9.8255  -26.2925   -3.2574 C   0  0  0  0  0  0
    7.2071  -29.5923   -2.0988 C   0  0  0  0  0  0
    6.6581  -30.4677   -3.2253 C   0  0  0  0  0  0
    7.7440  -31.2712   -3.8038 N   0  0  0  0  0  0
    7.6171  -32.7061   -3.8828 C   0  0  0  0  0  0
    6.9572  -33.3203   -2.9990 O   0  0  0  0  0  0
    8.2034  -33.4897   -5.0416 C   0  0  0  0  0  0
    9.7336  -33.4316   -5.0453 C   0  0  0  0  0  0
   10.2301  -34.7390   -4.4262 C   0  0  0  0  0  0
    9.0071  -35.6177   -4.1812 C   0  0  0  0  0  0
    7.8557  -34.9714   -4.9341 C   0  0  0  0  0  0
   15.7201  -26.4534   -3.7999 H   0  0  0  0  0  0
  1  2  1  0  0  0
  1  3  1  0  0  0
  3  4  1  0  0  0
  4  5  1  0  0  0
  5  6  1  0  0  0
  6  7  2  0  0  0
  7  8  1  0  0  0
  7  9  1  0  0  0
  9 10  1  0  0  0
 10 11  2  0  0  0
 11 12  1  0  0  0
 11 13  1  0  0  0
 13 14  2  0  0  0
 14 15  1  0  0  0
 15 16  2  0  0  0
 16 17  1  0  0  0
 16 18  1  0  0  0
 18 19  2  0  0  0
  9 20  2  0  0  0
 20 21  1  0  0  0
 21 22  1  0  0  0
 22 23  2  0  0  0
 23 24  1  0  0  0
 24 25  2  0  0  0
  4 26  1  0  0  0
 26 27  1  0  0  0
 27 28  1  0  0  0
 28 29  1  0  0  0
 29 30  2  0  0  0
 29 31  1  0  0  0
 31 32  1  0  0  0
 32 33  1  0  0  0
 33 34  1  0  0  0
 34 35  1  0  0  0
 28  1  1  0  0  0
 35 31  1  0  0  0
 25  6  1  0  0  0
 19 13  1  0  0  0
 25 21  1  0  0  0
 12 36  1  0  0  0
M  END
>  <CHROM.0>
9.52694250,-30.03046468,-47.74662669,-50.64295583,22.24111741,144.13986429
-49.29920522,63.60203617,-10.70197367

>  <CHROM.1>
58.40774162,-125.33547156,139.23532869,179.95878108,171.53734697,66.38517593
11.31055802,-28.58047818,-2.68218890,-2.48598098,-0.35561229,0.05473587

>  <Name>

>  <RI>
1.24701e+07

>  <Rbt.Current_Directory>
/extra/banzai2/j5wagner/CELPP/2016_10_17_rdock_implementation/normal_run/tutorialVideo/tutorial_rdock_implementation/full_week_run/4-docking/5m96/hiTanimoto_5iz0_docking

>  <Rbt.Executable>
rbdock ($Id: //depot/dev/client3/rdock/2013.1/src/exe/rbdock.cxx#4 $)

>  <Rbt.Library>
libRbt.so (2013.1, Build901 2013/11/27)

>  <Rbt.Parameter_File>
/home/j5wagner/env_00/source/rDock/rDock_2013.1_src//data/scripts/dock.prm

>  <Rbt.Receptor>
/extra/banzai2/j5wagner/CELPP/2016_10_17_rdock_implementation/normal_run/tutorialVideo/tutorial_rdock_implementation/full_week_run/4-docking/5m96/hiTanimoto_5iz0_tech_prep/rDockGridGenInput.prm

>  <SCORE>
-27.4644

>  <SCORE.INTER>
-21.0166

>  <SCORE.INTER.CONST>
1

>  <SCORE.INTER.POLAR>
-1.16761

>  <SCORE.INTER.REPUL>
0

>  <SCORE.INTER.ROT>
5

>  <SCORE.INTER.VDW>
-27.4467

>  <SCORE.INTER.norm>
-0.600474

>  <SCORE.INTRA>
-1.1517

>  <SCORE.INTRA.DIHEDRAL>
-5.28138

>  <SCORE.INTRA.DIHEDRAL.0>
9.74364

>  <SCORE.INTRA.POLAR>
0

>  <SCORE.INTRA.POLAR.0>
0

>  <SCORE.INTRA.REPUL>
0.0317974

>  <SCORE.INTRA.REPUL.0>
0.108387

>  <SCORE.INTRA.VDW>
1.33

>  <SCORE.INTRA.VDW.0>
-2.87247

>  <SCORE.INTRA.norm>
-0.0329057

>  <SCORE.RESTR>
0

>  <SCORE.RESTR.CAVITY>
0

>  <SCORE.RESTR.norm>
0

>  <SCORE.SYSTEM>
-5.29609

>  <SCORE.SYSTEM.CONST>
0

>  <SCORE.SYSTEM.DIHEDRAL>
5.20693

>  <SCORE.SYSTEM.POLAR>
-2.29932

>  <SCORE.SYSTEM.REPUL>
0.0895475

>  <SCORE.SYSTEM.VDW>
-0.52962

>  <SCORE.SYSTEM.norm>
-0.151317

>  <SCORE.heavy>
35

>  <SCORE.norm>
-0.784697

$$$$

  rDOCK(R)          3D
libRbt.so/2013.1/901 2013/11/27
 36 40  0  0  0  0  0  0  0  0999 V2000
   10.0974  -30.9038   -3.9924 C   0  0  0  0  0  0
   10.4727  -30.3100   -5.3559 C   0  0  0  0  0  0
   10.1405  -29.8360   -2.8847 C   0  0  0  0  0  0
    9.0286  -28.8739   -3.0402 N   0  0  0  0  0  0
    9.1421  -27.8025   -2.0293 C   0  0  0  0  0  0
   10.2809  -26.8595   -2.3697 C   0  0  0  0  0  0
   11.5220  -26.8367   -1.6649 C   0  0  0  0  0  0
   11.7481  -27.7565   -0.4869 C   0  0  0  0  0  0
   12.5633  -25.9644   -2.0982 C   0  0  0  0  0  0
   13.8226  -25.9443   -1.4030 N   0  0  0  0  0  0
   15.0035  -26.0553   -1.9396 C   0  0  0  0  0  0
   15.1318  -26.2934   -3.3108 O   0  0  0  0  0  0
   16.2028  -25.9819   -1.0691 C   0  0  0  0  0  0
   17.4988  -26.1180   -1.5894 C   0  0  0  0  0  0
   18.5756  -26.0581   -0.7640 N   0  0  0  0  0  0
   18.4273  -25.8550    0.5716 C   0  0  0  0  0  0
   19.6238  -25.8413    1.4632 C   0  0  0  0  0  0
   17.1841  -25.7181    1.1003 N   0  0  0  0  0  0
   16.0784  -25.7722    0.3143 C   0  0  0  0  0  0
   12.3167  -25.0756   -3.1626 C   0  0  0  0  0  0
   11.1133  -25.1204   -3.7776 N   0  0  0  0  0  0
   10.6504  -24.3927   -4.8026 C   0  0  0  0  0  0
    9.3632  -24.8265   -5.0607 C   0  0  0  0  0  0
    9.0264  -25.8173   -4.2010 N   0  0  0  0  0  0
   10.1290  -25.9612   -3.4339 C   0  0  0  0  0  0
    7.7333  -29.5765   -2.9209 C   0  0  0  0  0  0
    7.5916  -30.6016   -4.0460 C   0  0  0  0  0  0
    8.7528  -31.5021   -4.0462 N   0  0  0  0  0  0
    8.5589  -32.9301   -3.9782 C   0  0  0  0  0  0
    7.5681  -33.3924   -3.3472 O   0  0  0  0  0  0
    9.4825  -33.8895   -4.7043 C   0  0  0  0  0  0
    9.1167  -35.3489   -4.4197 C   0  0  0  0  0  0
    8.3060  -35.8463   -5.6175 C   0  0  0  0  0  0
    8.3065  -34.7317   -6.6593 C   0  0  0  0  0  0
    9.3605  -33.7300   -6.2168 C   0  0  0  0  0  0
   16.0299  -26.3933   -3.7651 H   0  0  0  0  0  0
  1  2  1  0  0  0
  1  3  1  0  0  0
  3  4  1  0  0  0
  4  5  1  0  0  0
  5  6  1  0  0  0
  6  7  2  0  0  0
  7  8  1  0  0  0
  7  9  1  0  0  0
  9 10  1  0  0  0
 10 11  2  0  0  0
 11 12  1  0  0  0
 11 13  1  0  0  0
 13 14  2  0  0  0
 14 15  1  0  0  0
 15 16  2  0  0  0
 16 17  1  0  0  0
 16 18  1  0  0  0
 18 19  2  0  0  0
  9 20  2  0  0  0
 20 21  1  0  0  0
 21 22  1  0  0  0
 22 23  2  0  0  0
 23 24  1  0  0  0
 24 25  2  0  0  0
  4 26  1  0  0  0
 26 27  1  0  0  0
 27 28  1  0  0  0
 28 29  1  0  0  0
 29 30  2  0  0  0
 29 31  1  0  0  0
 31 32  1  0  0  0
 32 33  1  0  0  0
 33 34  1  0  0  0
 34 35  1  0  0  0
 28  1  1  0  0  0
 35 31  1  0  0  0
 25  6  1  0  0  0
 19 13  1  0  0  0
 25 21  1  0  0  0
 12 36  1  0  0  0
M  END
>  <CHROM.0>
-152.33581515,1.76816002,-168.19054517,56.15335765,177.39684376,11.39252268
-47.13662542,-64.41098726,-111.10773779

>  <CHROM.1>
72.93443117,-106.41948844,128.98695053,-179.50193178,178.89059401,177.00254372
11.68660380,-28.57149499,-2.90487034,-2.42470825,-0.41609335,0.07709224

>  <Name>

>  <RI>
1.24701e+07

>  <Rbt.Current_Directory>
/extra/banzai2/j5wagner/CELPP/2016_10_17_rdock_implementation/normal_run/tutorialVideo/tutorial_rdock_implementation/full_week_run/4-docking/5m96/hiTanimoto_5iz0_docking

>  <Rbt.Executable>
rbdock ($Id: //depot/dev/client3/rdock/2013.1/src/exe/rbdock.cxx#4 $)

>  <Rbt.Library>
libRbt.so (2013.1, Build901 2013/11/27)

>  <Rbt.Parameter_File>
/home/j5wagner/env_00/source/rDock/rDock_2013.1_src//data/scripts/dock.prm

>  <Rbt.Receptor>
/extra/banzai2/j5wagner/CELPP/2016_10_17_rdock_implementation/normal_run/tutorialVideo/tutorial_rdock_implementation/full_week_run/4-docking/5m96/hiTanimoto_5iz0_tech_prep/rDockGridGenInput.prm

>  <SCORE>
-36.5895

>  <SCORE.INTER>
-20.7437

>  <SCORE.INTER.CONST>
1

>  <SCORE.INTER.POLAR>
-1.18183

>  <SCORE.INTER.REPUL>
0

>  <SCORE.INTER.ROT>
5

>  <SCORE.INTER.VDW>
-27.1255

>  <SCORE.INTER.norm>
-0.592676

>  <SCORE.INTRA>
-2.02152

>  <SCORE.INTRA.DIHEDRAL>
-3.97937

>  <SCORE.INTRA.DIHEDRAL.0>
9.74364

>  <SCORE.INTRA.POLAR>
0

>  <SCORE.INTRA.POLAR.0>
0

>  <SCORE.INTRA.REPUL>
-0.108387

>  <SCORE.INTRA.REPUL.0>
0.108387

>  <SCORE.INTRA.VDW>
0.510107

>  <SCORE.INTRA.VDW.0>
-2.87247

>  <SCORE.INTRA.norm>
-0.0577576

>  <SCORE.RESTR>
0

>  <SCORE.RESTR.CAVITY>
0

>  <SCORE.RESTR.norm>
0

>  <SCORE.SYSTEM>
-13.8243

>  <SCORE.SYSTEM.CONST>
0

>  <SCORE.SYSTEM.DIHEDRAL>
6.69918

>  <SCORE.SYSTEM.POLAR>
-4.33076

>  <SCORE.SYSTEM.REPUL>
0.0147623

>  <SCORE.SYSTEM.VDW>
-2.52309

>  <SCORE.SYSTEM.norm>
-0.394979

>  <SCORE.heavy>
35

>  <SCORE.norm>
-1.04541

$$$$

  rDOCK(R)          3D
libRbt.so/2013.1/901 2013/11/27
 36 40  0  0  0  0  0  0  0  0999 V2000
   10.4552  -30.5431   -4.1533 C   0  0  0  0  0  0
   11.5817  -30.0550   -5.0727 C   0  0  0  0  0  0
   10.0664  -29.4676   -3.1231 C   0  0  0  0  0  0
    9.3682  -28.3414   -3.7788 N   0  0  0  0  0  0
    9.0899  -27.2765   -2.7933 C   0  0  0  0  0  0
   10.1983  -26.2403   -2.7929 C   0  0  0  0  0  0
   11.4136  -26.3874   -2.0589 C   0  0  0  0  0  0
   11.6399  -27.6054   -1.1927 C   0  0  0  0  0  0
   12.4307  -25.3945   -2.1721 C   0  0  0  0  0  0
   13.6647  -25.5407   -1.4472 N   0  0  0  0  0  0
   14.8649  -25.5100   -1.9504 C   0  0  0  0  0  0
   15.0442  -25.4013   -3.3322 O   0  0  0  0  0  0
   16.0320  -25.6481   -1.0448 C   0  0  0  0  0  0
   15.8962  -25.5584    0.3490 C   0  0  0  0  0  0
   16.9863  -25.6771    1.1502 N   0  0  0  0  0  0
   18.2220  -25.8955    0.6284 C   0  0  0  0  0  0
   19.4102  -25.9743    1.5277 C   0  0  0  0  0  0
   18.3806  -25.9884   -0.7170 N   0  0  0  0  0  0
   17.3201  -25.8749   -1.5572 C   0  0  0  0  0  0
   12.1816  -24.2402   -2.9397 C   0  0  0  0  0  0
   11.0018  -24.1394   -3.5929 N   0  0  0  0  0  0
   10.5422  -23.1572   -4.3793 C   0  0  0  0  0  0
    9.2836  -23.5356   -4.8089 C   0  0  0  0  0  0
    8.9613  -24.7452   -4.2922 N   0  0  0  0  0  0
   10.0434  -25.0741   -3.5534 C   0  0  0  0  0  0
    8.1175  -28.8196   -4.4056 C   0  0  0  0  0  0
    8.4397  -29.8373   -5.4998 C   0  0  0  0  0  0
    9.2711  -30.9151   -4.9460 N   0  0  0  0  0  0
    8.8558  -32.2899   -5.0826 C   0  0  0  0  0  0
    7.6244  -32.5673   -5.0999 O   0  0  0  0  0  0
    9.8650  -33.4061   -5.2731 C   0  0  0  0  0  0
    9.9714  -34.2892   -4.0267 C   0  0  0  0  0  0
    9.1312  -35.5391   -4.2937 C   0  0  0  0  0  0
    8.6413  -35.4561   -5.7362 C   0  0  0  0  0  0
    9.4395  -34.3448   -6.3981 C   0  0  0  0  0  0
   14.2699  -25.3162   -3.9773 H   0  0  0  0  0  0
  1  2  1  0  0  0
  1  3  1  0  0  0
  3  4  1  0  0  0
  4  5  1  0  0  0
  5  6  1  0  0  0
  6  7  2  0  0  0
  7  8  1  0  0  0
  7  9  1  0  0  0
  9 10  1  0  0  0
 10 11  2  0  0  0
 11 12  1  0  0  0
 11 13  1  0  0  0
 13 14  2  0  0  0
 14 15  1  0  0  0
 15 16  2  0  0  0
 16 17  1  0  0  0
 16 18  1  0  0  0
 18 19  2  0  0  0
  9 20  2  0  0  0
 20 21  1  0  0  0
 21 22  1  0  0  0
 22 23  2  0  0  0
 23 24  1  0  0  0
 24 25  2  0  0  0
  4 26  1  0  0  0
 26 27  1  0  0  0
 27 28  1  0  0  0
 28 29  1  0  0  0
 29 30  2  0  0  0
 29 31  1  0  0  0
 31 32  1  0  0  0
 32 33  1  0  0  0
 33 34  1  0  0  0
 34 35  1  0  0  0
 28  1  1  0  0  0
 35 31  1  0  0  0
 25  6  1  0  0  0
 19 13  1  0  0  0
 25 21  1  0  0  0
 12 36  1  0  0  0
M  END
>  <CHROM.0>
-149.26585006,-30.51517098,72.77675421,61.53492086,-168.90841375,11.68773333
-45.84262400,165.03068448,-7.55878192

>  <CHROM.1>
93.50400880,-83.57109485,125.79978141,1.85082258,-12.19292008,109.16162894
11.79063119,-28.09339262,-3.10919131,-2.37210334,-0.47345426,0.08533587

>  <Name>

>  <RI>
1.24701e+07

>  <Rbt.Current_Directory>
/extra/banzai2/j5wagner/CELPP/2016_10_17_rdock_implementation/normal_run/tutorialVideo/tutorial_rdock_implementation/full_week_run/4-docking/5m96/hiTanimoto_5iz0_docking

>  <Rbt.Executable>
rbdock ($Id: //depot/dev/client3/rdock/2013.1/src/exe/rbdock.cxx#4 $)

>  <Rbt.Library>
libRbt.so (2013.1, Build901 2013/11/27)

>  <Rbt.Parameter_File>
/home/j5wagner/env_00/source/rDock/rDock_2013.1_src//data/scripts/dock.prm

>  <Rbt.Receptor>
/extra/banzai2/j5wagner/CELPP/2016_10_17_rdock_implementation/normal_run/tutorialVideo/tutorial_rdock_implementation/full_week_run/4-docking/5m96/hiTanimoto_5iz0_tech_prep/rDockGridGenInput.prm

>  <SCORE>
-35.8253

>  <SCORE.INTER>
-21.9262

>  <SCORE.INTER.CONST>
1

>  <SCORE.INTER.POLAR>
-1.87855

>  <SCORE.INTER.REPUL>
0

>  <SCORE.INTER.ROT>
5

>  <SCORE.INTER.VDW>
-25.9391

>  <SCORE.INTER.norm>
-0.626463

>  <SCORE.INTRA>
0.62064

>  <SCORE.INTRA.DIHEDRAL>
0.733194

>  <SCORE.INTRA.DIHEDRAL.0>
9.74364

>  <SCORE.INTRA.POLAR>
0

>  <SCORE.INTRA.POLAR.0>
0

>  <SCORE.INTRA.REPUL>
-0.108387

>  <SCORE.INTRA.REPUL.0>
0.108387

>  <SCORE.INTRA.VDW>
0.795979

>  <SCORE.INTRA.VDW.0>
-2.87247

>  <SCORE.INTRA.norm>
0.0177326

>  <SCORE.RESTR>
0

>  <SCORE.RESTR.CAVITY>
0

>  <SCORE.RESTR.norm>
0

>  <SCORE.SYSTEM>
-14.5198

>  <SCORE.SYSTEM.CONST>
0

>  <SCORE.SYSTEM.DIHEDRAL>
5.29806

>  <SCORE.SYSTEM.POLAR>
-4.43791

>  <SCORE.SYSTEM.VDW>
-2.07991

>  <SCORE.SYSTEM.norm>
-0.414851

>  <SCORE.heavy>
35

>  <SCORE.norm>
-1.02358

$$$$

  rDOCK(R)          3D
libRbt.so/2013.1/901 2013/11/27
 36 40  0  0  0  0  0  0  0  0999 V2000
    8.2602  -30.4105   -3.0021 C   0  0  0  0  0  0
    8.8962  -30.8562   -1.6795 C   0  0  0  0  0  0
    7.9032  -28.9135   -2.9763 C   0  0  0  0  0  0
    9.1255  -28.0823   -3.0073 N   0  0  0  0  0  0
    8.7688  -26.6540   -2.8835 C   0  0  0  0  0  0
    9.9937  -25.7760   -3.0593 C   0  0  0  0  0  0
   11.1865  -25.9250   -2.2895 C   0  0  0  0  0  0
   11.2694  -26.9751   -1.2054 C   0  0  0  0  0  0
   12.3149  -25.0999   -2.5703 C   0  0  0  0  0  0
   13.5263  -25.2521   -1.8093 N   0  0  0  0  0  0
   14.6853  -25.6273   -2.2684 C   0  0  0  0  0  0
   14.8210  -26.0058   -3.6069 O   0  0  0  0  0  0
   15.8408  -25.7006   -1.3406 C   0  0  0  0  0  0
   15.7615  -25.2133   -0.0271 C   0  0  0  0  0  0
   16.8411  -25.2842    0.7938 N   0  0  0  0  0  0
   18.0102  -25.8341    0.3719 C   0  0  0  0  0  0
   19.1958  -25.8563    1.2776 C   0  0  0  0  0  0
   18.1128  -26.3149   -0.8939 N   0  0  0  0  0  0
   17.0604  -26.2644   -1.7503 C   0  0  0  0  0  0
   12.2021  -24.0904   -3.5460 C   0  0  0  0  0  0
   11.0395  -23.9754   -4.2269 N   0  0  0  0  0  0
   10.6970  -23.1122   -5.1924 C   0  0  0  0  0  0
    9.3998  -23.4125   -5.5648 C   0  0  0  0  0  0
    8.9372  -24.4552   -4.8349 N   0  0  0  0  0  0
    9.9759  -24.7648   -4.0286 C   0  0  0  0  0  0
    9.8739  -28.3324   -4.2576 C   0  0  0  0  0  0
   10.3295  -29.7906   -4.3086 C   0  0  0  0  0  0
    9.1730  -30.6787   -4.1262 N   0  0  0  0  0  0
    8.8890  -31.7035   -5.1011 C   0  0  0  0  0  0
    9.1800  -31.5046   -6.3133 O   0  0  0  0  0  0
    8.3081  -33.0441   -4.6935 C   0  0  0  0  0  0
    8.3224  -34.0418   -5.8551 C   0  0  0  0  0  0
    9.5352  -34.9501   -5.6469 C   0  0  0  0  0  0
   10.1552  -34.5774   -4.3036 C   0  0  0  0  0  0
    9.1434  -33.6928   -3.5937 C   0  0  0  0  0  0
   15.6845  -26.3726   -3.9849 H   0  0  0  0  0  0
  1  2  1  0  0  0
  1  3  1  0  0  0
  3  4  1  0  0  0
  4  5  1  0  0  0
  5  6  1  0  0  0
  6  7  2  0  0  0
  7  8  1  0  0  0
  7  9  1  0  0  0
  9 10  1  0  0  0
 10 11  2  0  0  0
 11 12  1  0  0  0
 11 13  1  0  0  0
 13 14  2  0  0  0
 14 15  1  0  0  0
 15 16  2  0  0  0
 16 17  1  0  0  0
 16 18  1  0  0  0
 18 19  2  0  0  0
  9 20  2  0  0  0
 20 21  1  0  0  0
 21 22  1  0  0  0
 22 23  2  0  0  0
 23 24  1  0  0  0
 24 25  2  0  0  0
  4 26  1  0  0  0
 26 27  1  0  0  0
 27 28  1  0  0  0
 28 29  1  0  0  0
 29 30  2  0  0  0
 29 31  1  0  0  0
 31 32  1  0  0  0
 32 33  1  0  0  0
 33 34  1  0  0  0
 34 35  1  0  0  0
 28  1  1  0  0  0
 35 31  1  0  0  0
 25  6  1  0  0  0
 19 13  1  0  0  0
 25 21  1  0  0  0
 12 36  1  0  0  0
M  END
>  <CHROM.0>
7.19971489,-31.55753587,-49.70212250,59.80744263,-157.75920325,11.98648792
170.00321801,-56.43288949,-21.04591392

>  <CHROM.1>
-174.05137800,-54.45578556,116.40776440,-175.04044720,-8.39650624,-170.12311949
11.60772483,-27.85145339,-3.08696904,-2.43129679,-0.47201226,-0.01431133

>  <Name>

>  <RI>
1.24701e+07

>  <Rbt.Current_Directory>
/extra/banzai2/j5wagner/CELPP/2016_10_17_rdock_implementation/normal_run/tutorialVideo/tutorial_rdock_implementation/full_week_run/4-docking/5m96/hiTanimoto_5iz0_docking

>  <Rbt.Executable>
rbdock ($Id: //depot/dev/client3/rdock/2013.1/src/exe/rbdock.cxx#4 $)

>  <Rbt.Library>
libRbt.so (2013.1, Build901 2013/11/27)

>  <Rbt.Parameter_File>
/home/j5wagner/env_00/source/rDock/rDock_2013.1_src//data/scripts/dock.prm

>  <Rbt.Receptor>
/extra/banzai2/j5wagner/CELPP/2016_10_17_rdock_implementation/normal_run/tutorialVideo/tutorial_rdock_implementation/full_week_run/4-docking/5m96/hiTanimoto_5iz0_tech_prep/rDockGridGenInput.prm

>  <SCORE>
-33.3966

>  <SCORE.INTER>
-19.6537

>  <SCORE.INTER.CONST>
1

>  <SCORE.INTER.POLAR>
-1.84399

>  <SCORE.INTER.REPUL>
0

>  <SCORE.INTER.ROT>
5

>  <SCORE.INTER.VDW>
-23.7842

>  <SCORE.INTER.norm>
-0.561535

>  <SCORE.INTRA>
-0.320348

>  <SCORE.INTRA.DIHEDRAL>
-2.69415

>  <SCORE.INTRA.DIHEDRAL.0>
9.74364

>  <SCORE.INTRA.POLAR>
0

>  <SCORE.INTRA.POLAR.0>
0

>  <SCORE.INTRA.REPUL>
-0.108387

>  <SCORE.INTRA.REPUL.0>
0.108387

>  <SCORE.INTRA.VDW>
1.56866

>  <SCORE.INTRA.VDW.0>
-2.87247

>  <SCORE.INTRA.norm>
-0.0091528

>  <SCORE.RESTR>
0

>  <SCORE.RESTR.CAVITY>
0

>  <SCORE.RESTR.norm>
0

>  <SCORE.SYSTEM>
-13.4226

>  <SCORE.SYSTEM.CONST>
0

>  <SCORE.SYSTEM.DIHEDRAL>
3.66994

>  <SCORE.SYSTEM.POLAR>
-3.84113

>  <SCORE.SYSTEM.REPUL>
0.0368394

>  <SCORE.SYSTEM.VDW>
-2.3819

>  <SCORE.SYSTEM.norm>
-0.383502

>  <SCORE.heavy>
35

>  <SCORE.norm>
-0.95419

$$$$

  rDOCK(R)          3D
libRbt.so/2013.1/901 2013/11/27
 36 40  0  0  0  0  0  0  0  0999 V2000
    9.8697  -31.8450   -4.4062 C   0  0  0  0  0  0
   10.0805  -31.0880   -5.7233 C   0  0  0  0  0  0
    9.9747  -30.9020   -3.1942 C   0  0  0  0  0  0
    8.8108  -29.9922   -3.1354 N   0  0  0  0  0  0
    8.9760  -29.0313   -2.0254 C   0  0  0  0  0  0
    9.9216  -27.9118   -2.4187 C   0  0  0  0  0  0
    9.8374  -27.2087   -3.6581 C   0  0  0  0  0  0
    8.7908  -27.5870   -4.6810 C   0  0  0  0  0  0
   10.7252  -26.1229   -3.9148 C   0  0  0  0  0  0
   10.6390  -25.3992   -5.1551 N   0  0  0  0  0  0
    9.9546  -24.3128   -5.3701 C   0  0  0  0  0  0
    9.1429  -23.7838   -4.3629 O   0  0  0  0  0  0
   10.0053  -23.6802   -6.7112 C   0  0  0  0  0  0
    9.0787  -22.6998   -7.0975 C   0  0  0  0  0  0
    9.1447  -22.1486   -8.3370 N   0  0  0  0  0  0
   10.1074  -22.5204   -9.2214 C   0  0  0  0  0  0
   10.1285  -21.9344  -10.5935 C   0  0  0  0  0  0
   11.0175  -23.4655   -8.8718 N   0  0  0  0  0  0
   10.9899  -24.0450   -7.6443 C   0  0  0  0  0  0
   11.7293  -25.8194   -2.9750 C   0  0  0  0  0  0
   11.7810  -26.5354   -1.8290 N   0  0  0  0  0  0
   12.6262  -26.4323   -0.7948 C   0  0  0  0  0  0
   12.2548  -27.3898    0.1309 C   0  0  0  0  0  0
   11.1859  -28.0855   -0.3247 N   0  0  0  0  0  0
   10.9328  -27.5275   -1.5286 C   0  0  0  0  0  0
    7.5667  -30.7746   -2.9748 C   0  0  0  0  0  0
    7.3600  -31.6788   -4.1898 C   0  0  0  0  0  0
    8.5548  -32.5081   -4.4004 N   0  0  0  0  0  0
    8.4330  -33.9436   -4.4757 C   0  0  0  0  0  0
    7.5316  -34.5256   -3.8106 O   0  0  0  0  0  0
    9.3220  -34.7663   -5.3888 C   0  0  0  0  0  0
    8.9330  -36.2472   -5.3703 C   0  0  0  0  0  0
    8.0879  -36.5010   -6.6196 C   0  0  0  0  0  0
    8.0892  -35.2128   -7.4371 C   0  0  0  0  0  0
    9.1720  -34.3273   -6.8423 C   0  0  0  0  0  0
    8.7609  -22.8482   -4.4056 H   0  0  0  0  0  0
  1  2  1  0  0  0
  1  3  1  0  0  0
  3  4  1  0  0  0
  4  5  1  0  0  0
  5  6  1  0  0  0
  6  7  2  0  0  0
  7  8  1  0  0  0
  7  9  1  0  0  0
  9 10  1  0  0  0
 10 11  2  0  0  0
 11 12  1  0  0  0
 11 13  1  0  0  0
 13 14  2  0  0  0
 14 15  1  0  0  0
 15 16  2  0  0  0
 16 17  1  0  0  0
 16 18  1  0  0  0
 18 19  2  0  0  0
  9 20  2  0  0  0
 20 21  1  0  0  0
 21 22  1  0  0  0
 22 23  2  0  0  0
 23 24  1  0  0  0
 24 25  2  0  0  0
  4 26  1  0  0  0
 26 27  1  0  0  0
 27 28  1  0  0  0
 28 29  1  0  0  0
 29 30  2  0  0  0
 29 31  1  0  0  0
 31 32  1  0  0  0
 32 33  1  0  0  0
 33 34  1  0  0  0
 34 35  1  0  0  0
 28  1  1  0  0  0
 35 31  1  0  0  0
 25  6  1  0  0  0
 19 13  1  0  0  0
 25 21  1  0  0  0
 12 36  1  0  0  0
M  END
>  <CHROM.0>
36.90918518,2.00604451,-167.61569731,-52.10725009,-177.88085186,-165.70582121
76.45467724,169.07751317,-4.91495018

>  <CHROM.1>
78.95226956,46.74266671,93.33306712,165.99088142,165.57730629,-175.75680616
9.69666564,-28.57333460,-4.74537653,-2.12458383,-1.26813293,-0.68838022

>  <Name>

>  <RI>
1.24701e+07

>  <Rbt.Current_Directory>
/extra/banzai2/j5wagner/CELPP/2016_10_17_rdock_implementation/normal_run/tutorialVideo/tutorial_rdock_implementation/full_week_run/4-docking/5m96/hiTanimoto_5iz0_docking

>  <Rbt.Executable>
rbdock ($Id: //depot/dev/client3/rdock/2013.1/src/exe/rbdock.cxx#4 $)

>  <Rbt.Library>
libRbt.so (2013.1, Build901 2013/11/27)

>  <Rbt.Parameter_File>
/home/j5wagner/env_00/source/rDock/rDock_2013.1_src//data/scripts/dock.prm

>  <Rbt.Receptor>
/extra/banzai2/j5wagner/CELPP/2016_10_17_rdock_implementation/normal_run/tutorialVideo/tutorial_rdock_implementation/full_week_run/4-docking/5m96/hiTanimoto_5iz0_tech_prep/rDockGridGenInput.prm

>  <SCORE>
-22.9158

>  <SCORE.INTER>
-16.9049

>  <SCORE.INTER.CONST>
1

>  <SCORE.INTER.POLAR>
-0.765546

>  <SCORE.INTER.REPUL>
0

>  <SCORE.INTER.ROT>
5

>  <SCORE.INTER.VDW>
-24.702

>  <SCORE.INTER.norm>
-0.482997

>  <SCORE.INTRA>
0.621821

>  <SCORE.INTRA.DIHEDRAL>
0.822363

>  <SCORE.INTRA.DIHEDRAL.0>
9.74364

>  <SCORE.INTRA.POLAR>
0

>  <SCORE.INTRA.POLAR.0>
0

>  <SCORE.INTRA.REPUL>
-0.108387

>  <SCORE.INTRA.REPUL.0>
0.108387

>  <SCORE.INTRA.VDW>
0.752576

>  <SCORE.INTRA.VDW.0>
-2.87247

>  <SCORE.INTRA.norm>
0.0177663

>  <SCORE.RESTR>
0

>  <SCORE.RESTR.CAVITY>
0

>  <SCORE.RESTR.norm>
0

>  <SCORE.SYSTEM>
-6.63277

>  <SCORE.SYSTEM.CONST>
0

>  <SCORE.SYSTEM.DIHEDRAL>
4.56143

>  <SCORE.SYSTEM.POLAR>
-2.77134

>  <SCORE.SYSTEM.REPUL>
0.197274

>  <SCORE.SYSTEM.VDW>
-0.477284

>  <SCORE.SYSTEM.norm>
-0.189508

>  <SCORE.heavy>
35

>  <SCORE.norm>
-0.654738

$$$$

  rDOCK(R)          3D
libRbt.so/2013.1/901 2013/11/27
 36 40  0  0  0  0  0  0  0  0999 V2000
   13.9633  -27.3269   -1.7394 C   0  0  0  0  0  0
   12.8277  -26.7440   -0.8891 C   0  0  0  0  0  0
   13.4582  -27.7631   -3.1264 C   0  0  0  0  0  0
   13.1195  -26.5865   -3.9551 N   0  0  0  0  0  0
   12.5456  -27.0243   -5.2441 C   0  0  0  0  0  0
   11.1655  -27.6221   -5.0437 C   0  0  0  0  0  0
   10.9347  -29.0127   -4.8190 C   0  0  0  0  0  0
   12.0907  -29.9865   -4.8074 C   0  0  0  0  0  0
    9.6094  -29.4767   -4.5713 C   0  0  0  0  0  0
    9.3684  -30.8743   -4.3299 N   0  0  0  0  0  0
    9.6076  -31.8534   -5.1539 C   0  0  0  0  0  0
   10.0754  -31.5869   -6.4436 O   0  0  0  0  0  0
    9.3239  -33.2450   -4.7245 C   0  0  0  0  0  0
    8.8615  -33.5362   -3.4320 C   0  0  0  0  0  0
    8.6227  -34.8220   -3.0659 N   0  0  0  0  0  0
    8.8123  -35.8478   -3.9370 C   0  0  0  0  0  0
    8.5886  -37.2552   -3.4947 C   0  0  0  0  0  0
    9.2572  -35.5931   -5.1944 N   0  0  0  0  0  0
    9.5105  -34.3238   -5.6046 C   0  0  0  0  0  0
    8.5381  -28.5649   -4.6401 C   0  0  0  0  0  0
    8.8108  -27.2630   -4.8834 N   0  0  0  0  0  0
    7.9760  -26.2204   -4.9869 C   0  0  0  0  0  0
    8.7505  -25.1027   -5.2370 C   0  0  0  0  0  0
   10.0591  -25.4475   -5.2900 N   0  0  0  0  0  0
   10.0462  -26.7801   -5.0691 C   0  0  0  0  0  0
   14.3241  -25.7566   -4.1689 C   0  0  0  0  0  0
   14.8328  -25.2227   -2.8299 C   0  0  0  0  0  0
   15.0441  -26.3393   -1.8983 N   0  0  0  0  0  0
   16.3256  -26.5135   -1.2591 C   0  0  0  0  0  0
   17.3752  -26.1654   -1.8680 O   0  0  0  0  0  0
   16.4377  -27.0451    0.1571 C   0  0  0  0  0  0
   16.9900  -25.9859    1.1152 C   0  0  0  0  0  0
   15.7929  -25.3887    1.8565 C   0  0  0  0  0  0
   14.5585  -26.1808    1.4363 C   0  0  0  0  0  0
   15.0668  -27.4176    0.7138 C   0  0  0  0  0  0
   10.1425  -30.6491   -6.8163 H   0  0  0  0  0  0
  1  2  1  0  0  0
  1  3  1  0  0  0
  3  4  1  0  0  0
  4  5  1  0  0  0
  5  6  1  0  0  0
  6  7  2  0  0  0
  7  8  1  0  0  0
  7  9  1  0  0  0
  9 10  1  0  0  0
 10 11  2  0  0  0
 11 12  1  0  0  0
 11 13  1  0  0  0
 13 14  2  0  0  0
 14 15  1  0  0  0
 15 16  2  0  0  0
 16 17  1  0  0  0
 16 18  1  0  0  0
 18 19  2  0  0  0
  9 20  2  0  0  0
 20 21  1  0  0  0
 21 22  1  0  0  0
 22 23  2  0  0  0
 23 24  1  0  0  0
 24 25  2  0  0  0
  4 26  1  0  0  0
 26 27  1  0  0  0
 27 28  1  0  0  0
 28 29  1  0  0  0
 29 30  2  0  0  0
 29 31  1  0  0  0
 31 32  1  0  0  0
 32 33  1  0  0  0
 33 34  1  0  0  0
 34 35  1  0  0  0
 28  1  1  0  0  0
 35 31  1  0  0  0
 25  6  1  0  0  0
 19 13  1  0  0  0
 25 21  1  0  0  0
 12 36  1  0  0  0
M  END
>  <CHROM.0>
-151.16444541,-118.54003342,72.57172984,59.33051435,179.90044980,161.60629698
-48.66139319,62.63797214,-23.20980550

>  <CHROM.1>
69.98919932,-91.35115257,-61.40048847,-7.17188479,-2.92205345,-113.94415520
11.85358231,-28.89139640,-3.30047035,-0.65270103,0.71522360,2.89830707

>  <Name>

>  <RI>
1.24701e+07

>  <Rbt.Current_Directory>
/extra/banzai2/j5wagner/CELPP/2016_10_17_rdock_implementation/normal_run/tutorialVideo/tutorial_rdock_implementation/full_week_run/4-docking/5m96/hiTanimoto_5iz0_docking

>  <Rbt.Executable>
rbdock ($Id: //depot/dev/client3/rdock/2013.1/src/exe/rbdock.cxx#4 $)

>  <Rbt.Library>
libRbt.so (2013.1, Build901 2013/11/27)

>  <Rbt.Parameter_File>
/home/j5wagner/env_00/source/rDock/rDock_2013.1_src//data/scripts/dock.prm

>  <Rbt.Receptor>
/extra/banzai2/j5wagner/CELPP/2016_10_17_rdock_implementation/normal_run/tutorialVideo/tutorial_rdock_implementation/full_week_run/4-docking/5m96/hiTanimoto_5iz0_tech_prep/rDockGridGenInput.prm

>  <SCORE>
-7.53022

>  <SCORE.INTER>
-9.15417

>  <SCORE.INTER.CONST>
1

>  <SCORE.INTER.POLAR>
0

>  <SCORE.INTER.REPUL>
0.153302

>  <SCORE.INTER.ROT>
5

>  <SCORE.INTER.VDW>
-20.3207

>  <SCORE.INTER.norm>
-0.261548

>  <SCORE.INTRA>
9.67279

>  <SCORE.INTRA.DIHEDRAL>
0.615795

>  <SCORE.INTRA.DIHEDRAL.0>
9.74364

>  <SCORE.INTRA.POLAR>
0

>  <SCORE.INTRA.POLAR.0>
0

>  <SCORE.INTRA.REPUL>
-0.108387

>  <SCORE.INTRA.REPUL.0>
0.108387

>  <SCORE.INTRA.VDW>
9.90683

>  <SCORE.INTRA.VDW.0>
-2.87247

>  <SCORE.INTRA.norm>
0.276365

>  <SCORE.RESTR>
0

>  <SCORE.RESTR.CAVITY>
0

>  <SCORE.RESTR.norm>
0

>  <SCORE.SYSTEM>
-8.04883

>  <SCORE.SYSTEM.CONST>
0

>  <SCORE.SYSTEM.DIHEDRAL>
7.10332

>  <SCORE.SYSTEM.POLAR>
-2.72828

>  <SCORE.SYSTEM.REPUL>
0.145448

>  <SCORE.SYSTEM.VDW>
-3.05156

>  <SCORE.SYSTEM.norm>
-0.229967

>  <SCORE.heavy>
35

>  <SCORE.norm>
-0.215149

$$$$

  rDOCK(R)          3D
libRbt.so/2013.1/901 2013/11/27
 36 40  0  0  0  0  0  0  0  0999 V2000
   13.9011  -26.5884   -1.3890 C   0  0  0  0  0  0
   12.6161  -26.3586   -0.5837 C   0  0  0  0  0  0
   13.7090  -27.6867   -2.4502 C   0  0  0  0  0  0
   12.8263  -27.2155   -3.5387 N   0  0  0  0  0  0
   12.5747  -28.3122   -4.4960 C   0  0  0  0  0  0
   11.0862  -28.5657   -4.6452 C   0  0  0  0  0  0
   10.5176  -29.8693   -4.7665 C   0  0  0  0  0  0
   11.4071  -31.0913   -4.7892 C   0  0  0  0  0  0
    9.1010  -30.0177   -4.8326 C   0  0  0  0  0  0
    8.5178  -31.3283   -4.9409 N   0  0  0  0  0  0
    7.6512  -31.8583   -4.1267 C   0  0  0  0  0  0
    7.2604  -31.1720   -2.9737 O   0  0  0  0  0  0
    7.1304  -33.2182   -4.4107 C   0  0  0  0  0  0
    7.6316  -33.9917   -5.4688 C   0  0  0  0  0  0
    7.1249  -35.2284   -5.7102 N   0  0  0  0  0  0
    6.1379  -35.7477   -4.9335 C   0  0  0  0  0  0
    5.5656  -37.0891   -5.2495 C   0  0  0  0  0  0
    5.6367  -35.0207   -3.9020 N   0  0  0  0  0  0
    6.1111  -33.7794   -3.6237 C   0  0  0  0  0  0
    8.2904  -28.8664   -4.8654 C   0  0  0  0  0  0
    8.8834  -27.6545   -4.7748 N   0  0  0  0  0  0
    8.3341  -26.4326   -4.7763 C   0  0  0  0  0  0
    9.3676  -25.5222   -4.6550 C   0  0  0  0  0  0
   10.5528  -26.1730   -4.5798 N   0  0  0  0  0  0
   10.2057  -27.4762   -4.6588 C   0  0  0  0  0  0
   13.4387  -26.0534   -4.2172 C   0  0  0  0  0  0
   13.5845  -24.8932   -3.2327 C   0  0  0  0  0  0
   14.3255  -25.3401   -2.0450 N   0  0  0  0  0  0
   15.5069  -24.6288   -1.6213 C   0  0  0  0  0  0
   16.2380  -24.0697   -2.4854 O   0  0  0  0  0  0
   15.8568  -24.4798   -0.1529 C   0  0  0  0  0  0
   14.6964  -24.9082    0.7498 C   0  0  0  0  0  0
   15.0050  -26.3279    1.2277 C   0  0  0  0  0  0
   16.3985  -26.6845    0.7191 C   0  0  0  0  0  0
   17.0219  -25.3880    0.2286 C   0  0  0  0  0  0
    7.6453  -30.2723   -2.7179 H   0  0  0  0  0  0
  1  2  1  0  0  0
  1  3  1  0  0  0
  3  4  1  0  0  0
  4  5  1  0  0  0
  5  6  1  0  0  0
  6  7  2  0  0  0
  7  8  1  0  0  0
  7  9  1  0  0  0
  9 10  1  0  0  0
 10 11  2  0  0  0
 11 12  1  0  0  0
 11 13  1  0  0  0
 13 14  2  0  0  0
 14 15  1  0  0  0
 15 16  2  0  0  0
 16 17  1  0  0  0
 16 18  1  0  0  0
 18 19  2  0  0  0
  9 20  2  0  0  0
 20 21  1  0  0  0
 21 22  1  0  0  0
 22 23  2  0  0  0
 23 24  1  0  0  0
 24 25  2  0  0  0
  4 26  1  0  0  0
 26 27  1  0  0  0
 27 28  1  0  0  0
 28 29  1  0  0  0
 29 30  2  0  0  0
 29 31  1  0  0  0
 31 32  1  0  0  0
 32 33  1  0  0  0
 33 34  1  0  0  0
 34 35  1  0  0  0
 28  1  1  0  0  0
 35 31  1  0  0  0
 25  6  1  0  0  0
 19 13  1  0  0  0
 25 21  1  0  0  0
 12 36  1  0  0  0
M  END
>  <CHROM.0>
-148.59418101,-30.55581177,-166.44306920,65.92295780,166.12884509,11.70418839
-48.63950177,64.13225302,-0.10307734

>  <CHROM.1>
123.38249224,-140.90226841,122.80663930,-1.82137765,5.51377744,-11.39289620
11.03015479,-28.79848678,-3.27309231,-0.52733631,0.69784395,2.71053960

>  <Name>

>  <RI>
1.24701e+07

>  <Rbt.Current_Directory>
/extra/banzai2/j5wagner/CELPP/2016_10_17_rdock_implementation/normal_run/tutorialVideo/tutorial_rdock_implementation/full_week_run/4-docking/5m96/hiTanimoto_5iz0_docking

>  <Rbt.Executable>
rbdock ($Id: //depot/dev/client3/rdock/2013.1/src/exe/rbdock.cxx#4 $)

>  <Rbt.Library>
libRbt.so (2013.1, Build901 2013/11/27)

>  <Rbt.Parameter_File>
/home/j5wagner/env_00/source/rDock/rDock_2013.1_src//data/scripts/dock.prm

>  <Rbt.Receptor>
/extra/banzai2/j5wagner/CELPP/2016_10_17_rdock_implementation/normal_run/tutorialVideo/tutorial_rdock_implementation/full_week_run/4-docking/5m96/hiTanimoto_5iz0_tech_prep/rDockGridGenInput.prm

>  <SCORE>
-23.4006

>  <SCORE.INTER>
-16.7445

>  <SCORE.INTER.CONST>
1

>  <SCORE.INTER.POLAR>
0

>  <SCORE.INTER.REPUL>
0

>  <SCORE.INTER.ROT>
5

>  <SCORE.INTER.VDW>
-27.1445

>  <SCORE.INTER.norm>
-0.478414

>  <SCORE.INTRA>
8.2929

>  <SCORE.INTRA.DIHEDRAL>
1.66554

>  <SCORE.INTRA.DIHEDRAL.0>
9.74364

>  <SCORE.INTRA.POLAR>
0

>  <SCORE.INTRA.POLAR.0>
0

>  <SCORE.INTRA.REPUL>
0.0634912

>  <SCORE.INTRA.REPUL.0>
0.108387

>  <SCORE.INTRA.VDW>
7.14268

>  <SCORE.INTRA.VDW.0>
-2.87247

>  <SCORE.INTRA.norm>
0.23694

>  <SCORE.RESTR>
0

>  <SCORE.RESTR.CAVITY>
0

>  <SCORE.RESTR.norm>
0

>  <SCORE.SYSTEM>
-14.949

>  <SCORE.SYSTEM.CONST>
0

>  <SCORE.SYSTEM.DIHEDRAL>
4.25751

>  <SCORE.SYSTEM.POLAR>
-4.3716

>  <SCORE.SYSTEM.REPUL>
0.0302817

>  <SCORE.SYSTEM.VDW>
-2.36571

>  <SCORE.SYSTEM.norm>
-0.427114

>  <SCORE.heavy>
35

>  <SCORE.norm>
-0.668588

$$$$

  rDOCK(R)          3D
libRbt.so/2013.1/901 2013/11/27
 36 40  0  0  0  0  0  0  0  0999 V2000
   10.1271  -31.6605   -4.2210 C   0  0  0  0  0  0
   10.2384  -30.9810   -5.5915 C   0  0  0  0  0  0
   10.3204  -30.6496   -3.0764 C   0  0  0  0  0  0
    9.1628  -29.7347   -2.9838 N   0  0  0  0  0  0
    9.4085  -28.7120   -1.9462 C   0  0  0  0  0  0
   10.2820  -27.5955   -2.4871 C   0  0  0  0  0  0
    9.9884  -26.8754   -3.6841 C   0  0  0  0  0  0
    8.7740  -27.2313   -4.5108 C   0  0  0  0  0  0
   10.8285  -25.7938   -4.0807 C   0  0  0  0  0  0
   10.5330  -25.0531   -5.2780 N   0  0  0  0  0  0
   11.3412  -24.8445   -6.2770 C   0  0  0  0  0  0
   12.6637  -25.2922   -6.2152 O   0  0  0  0  0  0
   10.8558  -24.0792   -7.4518 C   0  0  0  0  0  0
   11.5053  -24.1476   -8.6938 C   0  0  0  0  0  0
   11.0429  -23.4251   -9.7467 N   0  0  0  0  0  0
    9.9437  -22.6347   -9.6285 C   0  0  0  0  0  0
    9.4847  -21.8141  -10.7872 C   0  0  0  0  0  0
    9.2955  -22.5522   -8.4381 N   0  0  0  0  0  0
    9.7219  -23.2553   -7.3577 C   0  0  0  0  0  0
   11.9856  -25.5113   -3.3291 C   0  0  0  0  0  0
   12.2307  -26.2428   -2.2184 N   0  0  0  0  0  0
   13.2459  -26.1604   -1.3483 C   0  0  0  0  0  0
   13.0331  -27.1269   -0.3827 C   0  0  0  0  0  0
   11.8933  -27.8075   -0.6507 N   0  0  0  0  0  0
   11.4381  -27.2315   -1.7847 C   0  0  0  0  0  0
    7.9352  -30.5030   -2.6865 C   0  0  0  0  0  0
    7.6402  -31.4751   -3.8288 C   0  0  0  0  0  0
    8.8171  -32.3184   -4.0795 N   0  0  0  0  0  0
    8.6923  -33.7555   -4.0628 C   0  0  0  0  0  0
    7.8436  -34.2959   -3.3002 O   0  0  0  0  0  0
    9.5122  -34.6318   -4.9905 C   0  0  0  0  0  0
    9.2566  -36.1196   -4.7334 C   0  0  0  0  0  0
    8.2706  -36.5930   -5.8025 C   0  0  0  0  0  0
    8.0489  -35.4280   -6.7623 C   0  0  0  0  0  0
    9.1248  -34.4014   -6.4482 C   0  0  0  0  0  0
   13.3279  -25.1353   -6.9617 H   0  0  0  0  0  0
  1  2  1  0  0  0
  1  3  1  0  0  0
  3  4  1  0  0  0
  4  5  1  0  0  0
  5  6  1  0  0  0
  6  7  2  0  0  0
  7  8  1  0  0  0
  7  9  1  0  0  0
  9 10  1  0  0  0
 10 11  2  0  0  0
 11 12  1  0  0  0
 11 13  1  0  0  0
 13 14  2  0  0  0
 14 15  1  0  0  0
 15 16  2  0  0  0
 16 17  1  0  0  0
 16 18  1  0  0  0
 18 19  2  0  0  0
  9 20  2  0  0  0
 20 21  1  0  0  0
 21 22  1  0  0  0
 22 23  2  0  0  0
 23 24  1  0  0  0
 24 25  2  0  0  0
  4 26  1  0  0  0
 26 27  1  0  0  0
 27 28  1  0  0  0
 28 29  1  0  0  0
 29 30  2  0  0  0
 29 31  1  0  0  0
 31 32  1  0  0  0
 32 33  1  0  0  0
 33 34  1  0  0  0
 34 35  1  0  0  0
 28  1  1  0  0  0
 35 31  1  0  0  0
 25  6  1  0  0  0
 19 13  1  0  0  0
 25 21  1  0  0  0
 12 36  1  0  0  0
M  END
>  <CHROM.0>
-150.93425250,-34.25498230,-166.91034617,58.81157103,-167.75070936,13.67863520
-47.21659566,-64.75338995,3.16036506

>  <CHROM.1>
80.88863522,52.95970499,-125.39880943,-178.82316003,-161.04532184,177.01024627
10.10451104,-28.52556984,-4.84594835,-2.07546601,-1.18032573,-0.73722680

>  <Name>

>  <RI>
1.24701e+07

>  <Rbt.Current_Directory>
/extra/banzai2/j5wagner/CELPP/2016_10_17_rdock_implementation/normal_run/tutorialVideo/tutorial_rdock_implementation/full_week_run/4-docking/5m96/hiTanimoto_5iz0_docking

>  <Rbt.Executable>
rbdock ($Id: //depot/dev/client3/rdock/2013.1/src/exe/rbdock.cxx#4 $)

>  <Rbt.Library>
libRbt.so (2013.1, Build901 2013/11/27)

>  <Rbt.Parameter_File>
/home/j5wagner/env_00/source/rDock/rDock_2013.1_src//data/scripts/dock.prm

>  <Rbt.Receptor>
/extra/banzai2/j5wagner/CELPP/2016_10_17_rdock_implementation/normal_run/tutorialVideo/tutorial_rdock_implementation/full_week_run/4-docking/5m96/hiTanimoto_5iz0_tech_prep/rDockGridGenInput.prm

>  <SCORE>
-32.574

>  <SCORE.INTER>
-16.4416

>  <SCORE.INTER.CONST>
1

>  <SCORE.INTER.POLAR>
-1.06975

>  <SCORE.INTER.REPUL>
0.00436053

>  <SCORE.INTER.ROT>
5

>  <SCORE.INTER.VDW>
-23.2263

>  <SCORE.INTER.norm>
-0.469761

>  <SCORE.INTRA>
-0.980786

>  <SCORE.INTRA.DIHEDRAL>
-2.0562

>  <SCORE.INTRA.DIHEDRAL.0>
9.74364

>  <SCORE.INTRA.POLAR>
0

>  <SCORE.INTRA.POLAR.0>
0

>  <SCORE.INTRA.REPUL>
-0.108387

>  <SCORE.INTRA.REPUL.0>
0.108387

>  <SCORE.INTRA.VDW>
0.589252

>  <SCORE.INTRA.VDW.0>
-2.87247

>  <SCORE.INTRA.norm>
-0.0280224

>  <SCORE.RESTR>
0.00918949

>  <SCORE.RESTR.CAVITY>
0.00918949

>  <SCORE.RESTR.norm>
0.000262557

>  <SCORE.SYSTEM>
-15.1607

>  <SCORE.SYSTEM.CONST>
0

>  <SCORE.SYSTEM.DIHEDRAL>
4.40996

>  <SCORE.SYSTEM.POLAR>
-4.43651

>  <SCORE.SYSTEM.REPUL>
0.00873023

>  <SCORE.SYSTEM.VDW>
-2.32524

>  <SCORE.SYSTEM.norm>
-0.433164

>  <SCORE.heavy>
35

>  <SCORE.norm>
-0.930685

$$$$

  rDOCK(R)          3D
libRbt.so/2013.1/901 2013/11/27
 36 40  0  0  0  0  0  0  0  0999 V2000
    9.1813  -31.0629   -3.9275 C   0  0  0  0  0  0
    9.2509  -30.5195   -5.3601 C   0  0  0  0  0  0
    9.4793  -29.9613   -2.8947 C   0  0  0  0  0  0
    8.3701  -28.9857   -2.8339 N   0  0  0  0  0  0
    8.7152  -27.8848   -1.9111 C   0  0  0  0  0  0
    9.8603  -27.0573   -2.4646 C   0  0  0  0  0  0
   11.1568  -27.0093   -1.8694 C   0  0  0  0  0  0
   11.4430  -27.7775   -0.5994 C   0  0  0  0  0  0
   12.1939  -26.2588   -2.4973 C   0  0  0  0  0  0
   13.5076  -26.2156   -1.9127 N   0  0  0  0  0  0
   13.8464  -25.5980   -0.8179 C   0  0  0  0  0  0
   12.9093  -24.8205   -0.1319 O   0  0  0  0  0  0
   15.2493  -25.6859   -0.3430 C   0  0  0  0  0  0
   15.6302  -25.2049    0.9190 C   0  0  0  0  0  0
   16.9252  -25.2892    1.3193 N   0  0  0  0  0  0
   17.8732  -25.8466    0.5207 C   0  0  0  0  0  0
   19.2973  -25.8834    0.9646 C   0  0  0  0  0  0
   17.5306  -26.3215   -0.7044 N   0  0  0  0  0  0
   16.2489  -26.2577   -1.1476 C   0  0  0  0  0  0
   11.8957  -25.5053   -3.6493 C   0  0  0  0  0  0
   10.6434  -25.5654   -4.1558 N   0  0  0  0  0  0
   10.1263  -24.9544   -5.2300 C   0  0  0  0  0  0
    8.8044  -25.3483   -5.3248 C   0  0  0  0  0  0
    8.5000  -26.1982   -4.3152 N   0  0  0  0  0  0
    9.6569  -26.2995   -3.6251 C   0  0  0  0  0  0
    7.1267  -29.6617   -2.4065 C   0  0  0  0  0  0
    6.7291  -30.7194   -3.4359 C   0  0  0  0  0  0
    7.8525  -31.6394   -3.6616 N   0  0  0  0  0  0
    7.6646  -33.0609   -3.5026 C   0  0  0  0  0  0
    6.8338  -33.4858   -2.6523 O   0  0  0  0  0  0
    8.3949  -34.0587   -4.3812 C   0  0  0  0  0  0
    8.5014  -35.4304   -3.7089 C   0  0  0  0  0  0
    7.4009  -36.3068   -4.3090 C   0  0  0  0  0  0
    6.7359  -35.5013   -5.4211 C   0  0  0  0  0  0
    7.6354  -34.3041   -5.6816 C   0  0  0  0  0  0
   13.1542  -24.2495    0.6662 H   0  0  0  0  0  0
  1  2  1  0  0  0
  1  3  1  0  0  0
  3  4  1  0  0  0
  4  5  1  0  0  0
  5  6  1  0  0  0
  6  7  2  0  0  0
  7  8  1  0  0  0
  7  9  1  0  0  0
  9 10  1  0  0  0
 10 11  2  0  0  0
 11 12  1  0  0  0
 11 13  1  0  0  0
 13 14  2  0  0  0
 14 15  1  0  0  0
 15 16  2  0  0  0
 16 17  1  0  0  0
 16 18  1  0  0  0
 18 19  2  0  0  0
  9 20  2  0  0  0
 20 21  1  0  0  0
 21 22  1  0  0  0
 22 23  2  0  0  0
 23 24  1  0  0  0
 24 25  2  0  0  0
  4 26  1  0  0  0
 26 27  1  0  0  0
 27 28  1  0  0  0
 28 29  1  0  0  0
 29 30  2  0  0  0
 29 31  1  0  0  0
 31 32  1  0  0  0
 32 33  1  0  0  0
 33 34  1  0  0  0
 34 35  1  0  0  0
 28  1  1  0  0  0
 35 31  1  0  0  0
 25  6  1  0  0  0
 19 13  1  0  0  0
 25 21  1  0  0  0
 12 36  1  0  0  0
M  END
>  <CHROM.0>
-150.09395654,-30.50977238,-166.18236393,-172.39320854,-178.56971538,-162.88764361
75.72072619,-60.97287081,-19.07240593

>  <CHROM.1>
67.03602448,-112.78174387,-70.81935973,-173.52533584,-170.82770939,156.93931542
10.90857756,-28.67976618,-2.59835062,-2.46482512,-0.49282659,-0.07018265

>  <Name>

>  <RI>
1.24701e+07

>  <Rbt.Current_Directory>
/extra/banzai2/j5wagner/CELPP/2016_10_17_rdock_implementation/normal_run/tutorialVideo/tutorial_rdock_implementation/full_week_run/4-docking/5m96/hiTanimoto_5iz0_docking

>  <Rbt.Executable>
rbdock ($Id: //depot/dev/client3/rdock/2013.1/src/exe/rbdock.cxx#4 $)

>  <Rbt.Library>
libRbt.so (2013.1, Build901 2013/11/27)

>  <Rbt.Parameter_File>
/home/j5wagner/env_00/source/rDock/rDock_2013.1_src//data/scripts/dock.prm

>  <Rbt.Receptor>
/extra/banzai2/j5wagner/CELPP/2016_10_17_rdock_implementation/normal_run/tutorialVideo/tutorial_rdock_implementation/full_week_run/4-docking/5m96/hiTanimoto_5iz0_tech_prep/rDockGridGenInput.prm

>  <SCORE>
-27.6358

>  <SCORE.INTER>
-18.7555

>  <SCORE.INTER.CONST>
1

>  <SCORE.INTER.POLAR>
-0.910815

>  <SCORE.INTER.REPUL>
0

>  <SCORE.INTER.ROT>
5

>  <SCORE.INTER.VDW>
-26.0588

>  <SCORE.INTER.norm>
-0.535873

>  <SCORE.INTRA>
-0.617486

>  <SCORE.INTRA.DIHEDRAL>
-0.568044

>  <SCORE.INTRA.DIHEDRAL.0>
9.74364

>  <SCORE.INTRA.POLAR>
0

>  <SCORE.INTRA.POLAR.0>
0

>  <SCORE.INTRA.REPUL>
-0.0787327

>  <SCORE.INTRA.REPUL.0>
0.108387

>  <SCORE.INTRA.VDW>
0.0602

>  <SCORE.INTRA.VDW.0>
-2.87247

>  <SCORE.INTRA.norm>
-0.0176424

>  <SCORE.RESTR>
0

>  <SCORE.RESTR.CAVITY>
0

>  <SCORE.RESTR.norm>
0

>  <SCORE.SYSTEM>
-8.26278

>  <SCORE.SYSTEM.CONST>
0

>  <SCORE.SYSTEM.DIHEDRAL>
5.19174

>  <SCORE.SYSTEM.POLAR>
-3.53358

>  <SCORE.SYSTEM.REPUL>
0.174103

>  <SCORE.SYSTEM.VDW>
0.285023

>  <SCORE.SYSTEM.norm>
-0.236079

>  <SCORE.heavy>
35

>  <SCORE.norm>
-0.789594

$$$$

  rDOCK(R)          3D
libRbt.so/2013.1/901 2013/11/27
 36 40  0  0  0  0  0  0  0  0999 V2000
    8.4138  -32.8735   -3.8042 C   0  0  0  0  0  0
    7.8584  -32.7722   -2.3781 C   0  0  0  0  0  0
    9.0100  -31.5332   -4.2704 C   0  0  0  0  0  0
   10.2645  -31.2372   -3.5463 N   0  0  0  0  0  0
   10.7700  -29.9044   -3.9348 C   0  0  0  0  0  0
   11.1365  -29.0892   -2.7086 C   0  0  0  0  0  0
   12.4726  -28.6980   -2.3936 C   0  0  0  0  0  0
   13.6218  -29.1246   -3.2780 C   0  0  0  0  0  0
   12.7164  -27.8726   -1.2568 C   0  0  0  0  0  0
   14.0578  -27.4614   -0.9390 N   0  0  0  0  0  0
   14.5035  -27.1192    0.2354 C   0  0  0  0  0  0
   13.6308  -27.0511    1.3248 O   0  0  0  0  0  0
   15.9326  -26.7501    0.3866 C   0  0  0  0  0  0
   16.8865  -27.0883   -0.5853 C   0  0  0  0  0  0
   18.1893  -26.7465   -0.4114 N   0  0  0  0  0  0
   18.5960  -26.0646    0.6917 C   0  0  0  0  0  0
   20.0407  -25.7433    0.8816 C   0  0  0  0  0  0
   17.6927  -25.7235    1.6464 N   0  0  0  0  0  0
   16.3800  -26.0450    1.5162 C   0  0  0  0  0  0
   11.6417  -27.5299   -0.4133 C   0  0  0  0  0  0
   10.3998  -27.9503   -0.7441 N   0  0  0  0  0  0
    9.2343  -27.7496   -0.1148 C   0  0  0  0  0  0
    8.2559  -28.3811   -0.8601 C   0  0  0  0  0  0
    8.8088  -28.9723   -1.9459 N   0  0  0  0  0  0
   10.1232  -28.6824   -1.8310 C   0  0  0  0  0  0
   11.2689  -32.2848   -3.8283 C   0  0  0  0  0  0
   10.7703  -33.6355   -3.3149 C   0  0  0  0  0  0
    9.4445  -33.9227   -3.8799 N   0  0  0  0  0  0
    9.2151  -35.1561   -4.5922 C   0  0  0  0  0  0
   10.1603  -35.6817   -5.2433 O   0  0  0  0  0  0
    7.8802  -35.8731   -4.5232 C   0  0  0  0  0  0
    6.7985  -35.1286   -5.3109 C   0  0  0  0  0  0
    6.6618  -35.8381   -6.6590 C   0  0  0  0  0  0
    7.5601  -37.0705   -6.6156 C   0  0  0  0  0  0
    7.9661  -37.2557   -5.1626 C   0  0  0  0  0  0
   13.9353  -26.7836    2.2515 H   0  0  0  0  0  0
  1  2  1  0  0  0
  1  3  1  0  0  0
  3  4  1  0  0  0
  4  5  1  0  0  0
  5  6  1  0  0  0
  6  7  2  0  0  0
  7  8  1  0  0  0
  7  9  1  0  0  0
  9 10  1  0  0  0
 10 11  2  0  0  0
 11 12  1  0  0  0
 11 13  1  0  0  0
 13 14  2  0  0  0
 14 15  1  0  0  0
 15 16  2  0  0  0
 16 17  1  0  0  0
 16 18  1  0  0  0
 18 19  2  0  0  0
  9 20  2  0  0  0
 20 21  1  0  0  0
 21 22  1  0  0  0
 22 23  2  0  0  0
 23 24  1  0  0  0
 24 25  2  0  0  0
  4 26  1  0  0  0
 26 27  1  0  0  0
 27 28  1  0  0  0
 28 29  1  0  0  0
 29 30  2  0  0  0
 29 31  1  0  0  0
 31 32  1  0  0  0
 32 33  1  0  0  0
 33 34  1  0  0  0
 34 35  1  0  0  0
 28  1  1  0  0  0
 35 31  1  0  0  0
 25  6  1  0  0  0
 19 13  1  0  0  0
 25 21  1  0  0  0
 12 36  1  0  0  0
M  END
>  <CHROM.0>
30.57510949,1.64755057,-47.29773363,61.60825986,-168.92915811,173.69773870
169.69843464,170.58330151,-22.77645132

>  <CHROM.1>
131.91866291,113.72387224,-155.24879091,-179.57337203,-17.12105983,72.27065567
11.64591942,-30.34934255,-2.25038971,2.25676676,0.02140066,-2.59606454

>  <Name>

>  <RI>
1.24701e+07

>  <Rbt.Current_Directory>
/extra/banzai2/j5wagner/CELPP/2016_10_17_rdock_implementation/normal_run/tutorialVideo/tutorial_rdock_implementation/full_week_run/4-docking/5m96/hiTanimoto_5iz0_docking

>  <Rbt.Executable>
rbdock ($Id: //depot/dev/client3/rdock/2013.1/src/exe/rbdock.cxx#4 $)

>  <Rbt.Library>
libRbt.so (2013.1, Build901 2013/11/27)

>  <Rbt.Parameter_File>
/home/j5wagner/env_00/source/rDock/rDock_2013.1_src//data/scripts/dock.prm

>  <Rbt.Receptor>
/extra/banzai2/j5wagner/CELPP/2016_10_17_rdock_implementation/normal_run/tutorialVideo/tutorial_rdock_implementation/full_week_run/4-docking/5m96/hiTanimoto_5iz0_tech_prep/rDockGridGenInput.prm

>  <SCORE>
-30.2325

>  <SCORE.INTER>
-19.7252

>  <SCORE.INTER.CONST>
1

>  <SCORE.INTER.POLAR>
-0.81786

>  <SCORE.INTER.REPUL>
0

>  <SCORE.INTER.ROT>
5

>  <SCORE.INTER.VDW>
-27.3444

>  <SCORE.INTER.norm>
-0.563576

>  <SCORE.INTRA>
-1.31063

>  <SCORE.INTRA.DIHEDRAL>
-4.19272

>  <SCORE.INTRA.DIHEDRAL.0>
9.74364

>  <SCORE.INTRA.POLAR>
0

>  <SCORE.INTRA.POLAR.0>
0

>  <SCORE.INTRA.REPUL>
-0.0914799

>  <SCORE.INTRA.REPUL.0>
0.108387

>  <SCORE.INTRA.VDW>
1.24313

>  <SCORE.INTRA.VDW.0>
-2.87247

>  <SCORE.INTRA.norm>
-0.0374466

>  <SCORE.RESTR>
0

>  <SCORE.RESTR.CAVITY>
0

>  <SCORE.RESTR.norm>
0

>  <SCORE.SYSTEM>
-9.19672

>  <SCORE.SYSTEM.CONST>
0

>  <SCORE.SYSTEM.DIHEDRAL>
3.53808

>  <SCORE.SYSTEM.POLAR>
-2.96074

>  <SCORE.SYSTEM.REPUL>
0.163762

>  <SCORE.SYSTEM.VDW>
-1.71805

>  <SCORE.SYSTEM.norm>
-0.262764

>  <SCORE.heavy>
35

>  <SCORE.norm>
-0.863786

$$$$

  rDOCK(R)          3D
libRbt.so/2013.1/901 2013/11/27
 36 40  0  0  0  0  0  0  0  0999 V2000
   10.0995  -30.9032   -3.8755 C   0  0  0  0  0  0
   10.5042  -30.3802   -5.2594 C   0  0  0  0  0  0
   10.0878  -29.7734   -2.8303 C   0  0  0  0  0  0
    8.9623  -28.8459   -3.0733 N   0  0  0  0  0  0
    9.0238  -27.7165   -2.1229 C   0  0  0  0  0  0
   10.1829  -26.7956   -2.4553 C   0  0  0  0  0  0
   11.4187  -26.7956   -1.7408 C   0  0  0  0  0  0
   11.6182  -27.7182   -0.5602 C   0  0  0  0  0  0
   12.4797  -25.9437   -2.1668 C   0  0  0  0  0  0
   13.7338  -25.9467   -1.4618 N   0  0  0  0  0  0
   14.9178  -26.0571   -1.9915 C   0  0  0  0  0  0
   15.0549  -26.2705   -3.3658 O   0  0  0  0  0  0
   16.1109  -26.0096   -1.1106 C   0  0  0  0  0  0
   16.0087  -25.6772    0.2488 C   0  0  0  0  0  0
   17.1216  -25.6306    1.0258 N   0  0  0  0  0  0
   18.3485  -25.9135    0.5142 C   0  0  0  0  0  0
   19.5610  -25.8083    1.3777 C   0  0  0  0  0  0
   18.4748  -26.2399   -0.7978 N   0  0  0  0  0  0
   17.3906  -26.2980   -1.6130 C   0  0  0  0  0  0
   12.2583  -25.0515   -3.2339 C   0  0  0  0  0  0
   11.0590  -25.0741   -3.8582 N   0  0  0  0  0  0
   10.6180  -24.3388   -4.8875 C   0  0  0  0  0  0
    9.3249  -24.7484   -5.1552 C   0  0  0  0  0  0
    8.9627  -25.7317   -4.2972 N   0  0  0  0  0  0
   10.0564  -25.8957   -3.5214 C   0  0  0  0  0  0
    7.6782  -29.5683   -2.9515 C   0  0  0  0  0  0
    7.5910  -30.6586   -4.0194 C   0  0  0  0  0  0
    8.7693  -31.5325   -3.9339 N   0  0  0  0  0  0
    8.6018  -32.9581   -3.7895 C   0  0  0  0  0  0
    7.6016  -33.4050   -3.1620 O   0  0  0  0  0  0
    9.5659  -33.9371   -4.4319 C   0  0  0  0  0  0
    9.1978  -35.3874   -4.1062 C   0  0  0  0  0  0
    8.4485  -35.9398   -5.3197 C   0  0  0  0  0  0
    8.4902  -34.8678   -6.4046 C   0  0  0  0  0  0
    9.5146  -33.8395   -5.9537 C   0  0  0  0  0  0
   15.9560  -26.3508   -3.8179 H   0  0  0  0  0  0
  1  2  1  0  0  0
  1  3  1  0  0  0
  3  4  1  0  0  0
  4  5  1  0  0  0
  5  6  1  0  0  0
  6  7  2  0  0  0
  7  8  1  0  0  0
  7  9  1  0  0  0
  9 10  1  0  0  0
 10 11  2  0  0  0
 11 12  1  0  0  0
 11 13  1  0  0  0
 13 14  2  0  0  0
 14 15  1  0  0  0
 15 16  2  0  0  0
 16 17  1  0  0  0
 16 18  1  0  0  0
 18 19  2  0  0  0
  9 20  2  0  0  0
 20 21  1  0  0  0
 21 22  1  0  0  0
 22 23  2  0  0  0
 23 24  1  0  0  0
 24 25  2  0  0  0
  4 26  1  0  0  0
 26 27  1  0  0  0
 27 28  1  0  0  0
 28 29  1  0  0  0
 29 30  2  0  0  0
 29 31  1  0  0  0
 31 32  1  0  0  0
 32 33  1  0  0  0
 33 34  1  0  0  0
 34 35  1  0  0  0
 28  1  1  0  0  0
 35 31  1  0  0  0
 25  6  1  0  0  0
 19 13  1  0  0  0
 25 21  1  0  0  0
 12 36  1  0  0  0
M  END
>  <CHROM.0>
15.47984305,3.87343747,72.37305812,59.97777614,-18.04140096,13.96720016,169.74573444
-62.30932246,-12.49980818

>  <CHROM.1>
70.98748310,-102.00714479,130.28190829,179.25745528,-8.38228437,178.57455253
11.65691023,-28.57567063,-2.88404151,-2.41901651,-0.41757057,0.04828870

>  <Name>

>  <RI>
1.24701e+07

>  <Rbt.Current_Directory>
/extra/banzai2/j5wagner/CELPP/2016_10_17_rdock_implementation/normal_run/tutorialVideo/tutorial_rdock_implementation/full_week_run/4-docking/5m96/hiTanimoto_5iz0_docking

>  <Rbt.Executable>
rbdock ($Id: //depot/dev/client3/rdock/2013.1/src/exe/rbdock.cxx#4 $)

>  <Rbt.Library>
libRbt.so (2013.1, Build901 2013/11/27)

>  <Rbt.Parameter_File>
/home/j5wagner/env_00/source/rDock/rDock_2013.1_src//data/scripts/dock.prm

>  <Rbt.Receptor>
/extra/banzai2/j5wagner/CELPP/2016_10_17_rdock_implementation/normal_run/tutorialVideo/tutorial_rdock_implementation/full_week_run/4-docking/5m96/hiTanimoto_5iz0_tech_prep/rDockGridGenInput.prm

>  <SCORE>
-34.8886

>  <SCORE.INTER>
-20.6452

>  <SCORE.INTER.CONST>
1

>  <SCORE.INTER.POLAR>
-1.15669

>  <SCORE.INTER.REPUL>
0

>  <SCORE.INTER.ROT>
5

>  <SCORE.INTER.VDW>
-27.1124

>  <SCORE.INTER.norm>
-0.589862

>  <SCORE.INTRA>
-1.82529

>  <SCORE.INTRA.DIHEDRAL>
-4.01254

>  <SCORE.INTRA.DIHEDRAL.0>
9.74364

>  <SCORE.INTRA.POLAR>
0

>  <SCORE.INTRA.POLAR.0>
0

>  <SCORE.INTRA.REPUL>
-0.108387

>  <SCORE.INTRA.REPUL.0>
0.108387

>  <SCORE.INTRA.VDW>
0.722915

>  <SCORE.INTRA.VDW.0>
-2.87247

>  <SCORE.INTRA.norm>
-0.0521512

>  <SCORE.RESTR>
0

>  <SCORE.RESTR.CAVITY>
0

>  <SCORE.RESTR.norm>
0

>  <SCORE.SYSTEM>
-12.4181

>  <SCORE.SYSTEM.CONST>
0

>  <SCORE.SYSTEM.DIHEDRAL>
2.20499

>  <SCORE.SYSTEM.POLAR>
-3.67322

>  <SCORE.SYSTEM.REPUL>
0.00576642

>  <SCORE.SYSTEM.VDW>
-1.06049

>  <SCORE.SYSTEM.norm>
-0.354803

>  <SCORE.heavy>
35

>  <SCORE.norm>
-0.996817

$$$$

  rDOCK(R)          3D
libRbt.so/2013.1/901 2013/11/27
 36 40  0  0  0  0  0  0  0  0999 V2000
   13.9163  -25.9342   -1.8207 C   0  0  0  0  0  0
   13.5313  -24.9579   -2.9393 C   0  0  0  0  0  0
   12.6749  -26.6210   -1.2238 C   0  0  0  0  0  0
   12.0920  -27.5795   -2.1868 N   0  0  0  0  0  0
   10.8482  -28.1560   -1.6362 C   0  0  0  0  0  0
    9.8492  -28.4374   -2.7430 C   0  0  0  0  0  0
    9.3691  -29.7445   -3.0569 C   0  0  0  0  0  0
    9.8805  -30.9483   -2.2988 C   0  0  0  0  0  0
    8.3775  -29.9078   -4.0683 C   0  0  0  0  0  0
    7.8772  -31.2196   -4.3822 N   0  0  0  0  0  0
    8.5060  -32.1490   -5.0422 C   0  0  0  0  0  0
    9.7644  -31.8901   -5.5923 O   0  0  0  0  0  0
    7.8456  -33.4615   -5.2487 C   0  0  0  0  0  0
    8.4529  -34.4807   -5.9979 C   0  0  0  0  0  0
    7.8167  -35.6669   -6.1786 N   0  0  0  0  0  0
    6.5933  -35.8986   -5.6340 C   0  0  0  0  0  0
    5.8949  -37.1927   -5.8877 C   0  0  0  0  0  0
    5.9845  -34.9297   -4.9029 N   0  0  0  0  0  0
    6.5817  -33.7280   -4.6966 C   0  0  0  0  0  0
    7.9526  -28.7830   -4.8018 C   0  0  0  0  0  0
    8.4605  -27.5715   -4.4810 N   0  0  0  0  0  0
    8.2105  -26.3707   -5.0199 C   0  0  0  0  0  0
    8.9787  -25.4490   -4.3329 C   0  0  0  0  0  0
    9.7033  -26.0721   -3.3733 N   0  0  0  0  0  0
    9.3536  -27.3704   -3.5034 C   0  0  0  0  0  0
   13.0726  -28.6413   -2.4979 C   0  0  0  0  0  0
   14.3032  -28.0325   -3.1700 C   0  0  0  0  0  0
   14.8464  -26.9563   -2.3297 N   0  0  0  0  0  0
   16.2310  -26.9850   -1.9255 C   0  0  0  0  0  0
   16.8018  -28.0965   -1.7449 O   0  0  0  0  0  0
   17.0383  -25.7096   -1.7761 C   0  0  0  0  0  0
   16.8313  -25.0687   -0.4010 C   0  0  0  0  0  0
   18.0337  -25.4615    0.4588 C   0  0  0  0  0  0
   19.0068  -26.2170   -0.4412 C   0  0  0  0  0  0
   18.5347  -25.9931   -1.8685 C   0  0  0  0  0  0
   10.2639  -32.5673   -6.1536 H   0  0  0  0  0  0
  1  2  1  0  0  0
  1  3  1  0  0  0
  3  4  1  0  0  0
  4  5  1  0  0  0
  5  6  1  0  0  0
  6  7  2  0  0  0
  7  8  1  0  0  0
  7  9  1  0  0  0
  9 10  1  0  0  0
 10 11  2  0  0  0
 11 12  1  0  0  0
 11 13  1  0  0  0
 13 14  2  0  0  0
 14 15  1  0  0  0
 15 16  2  0  0  0
 16 17  1  0  0  0
 16 18  1  0  0  0
 18 19  2  0  0  0
  9 20  2  0  0  0
 20 21  1  0  0  0
 21 22  1  0  0  0
 22 23  2  0  0  0
 23 24  1  0  0  0
 24 25  2  0  0  0
  4 26  1  0  0  0
 26 27  1  0  0  0
 27 28  1  0  0  0
 28 29  1  0  0  0
 29 30  2  0  0  0
 29 31  1  0  0  0
 31 32  1  0  0  0
 32 33  1  0  0  0
 33 34  1  0  0  0
 34 35  1  0  0  0
 28  1  1  0  0  0
 35 31  1  0  0  0
 25  6  1  0  0  0
 19 13  1  0  0  0
 25 21  1  0  0  0
 12 36  1  0  0  0
M  END
>  <CHROM.0>
-150.57872942,4.40315044,-162.69486216,65.54535452,-151.52406861,11.85538573
173.98804040,66.68303871,13.75997429

>  <CHROM.1>
146.61848006,117.72231296,-74.00093022,-176.62618882,177.38367221,84.30444802
11.31505216,-29.18021746,-3.31646393,0.71392208,-0.29520116,0.14259595

>  <Name>

>  <RI>
1.24701e+07

>  <Rbt.Current_Directory>
/extra/banzai2/j5wagner/CELPP/2016_10_17_rdock_implementation/normal_run/tutorialVideo/tutorial_rdock_implementation/full_week_run/4-docking/5m96/hiTanimoto_5iz0_docking

>  <Rbt.Executable>
rbdock ($Id: //depot/dev/client3/rdock/2013.1/src/exe/rbdock.cxx#4 $)

>  <Rbt.Library>
libRbt.so (2013.1, Build901 2013/11/27)

>  <Rbt.Parameter_File>
/home/j5wagner/env_00/source/rDock/rDock_2013.1_src//data/scripts/dock.prm

>  <Rbt.Receptor>
/extra/banzai2/j5wagner/CELPP/2016_10_17_rdock_implementation/normal_run/tutorialVideo/tutorial_rdock_implementation/full_week_run/4-docking/5m96/hiTanimoto_5iz0_tech_prep/rDockGridGenInput.prm

>  <SCORE>
-25.3394

>  <SCORE.INTER>
-10.664

>  <SCORE.INTER.CONST>
1

>  <SCORE.INTER.POLAR>
0

>  <SCORE.INTER.REPUL>
0

>  <SCORE.INTER.ROT>
5

>  <SCORE.INTER.VDW>
-21.064

>  <SCORE.INTER.norm>
-0.304687

>  <SCORE.INTRA>
-0.228417

>  <SCORE.INTRA.DIHEDRAL>
-0.156138

>  <SCORE.INTRA.DIHEDRAL.0>
9.74364

>  <SCORE.INTRA.POLAR>
0

>  <SCORE.INTRA.POLAR.0>
0

>  <SCORE.INTRA.REPUL>
-0.0359491

>  <SCORE.INTRA.REPUL.0>
0.108387

>  <SCORE.INTRA.VDW>
0.029398

>  <SCORE.INTRA.VDW.0>
-2.87247

>  <SCORE.INTRA.norm>
-0.00652619

>  <SCORE.RESTR>
0

>  <SCORE.RESTR.CAVITY>
0

>  <SCORE.RESTR.norm>
0

>  <SCORE.SYSTEM>
-14.4469

>  <SCORE.SYSTEM.CONST>
0

>  <SCORE.SYSTEM.DIHEDRAL>
4.0149

>  <SCORE.SYSTEM.POLAR>
-4.21317

>  <SCORE.SYSTEM.REPUL>
0.0700448

>  <SCORE.SYSTEM.VDW>
-2.4798

>  <SCORE.SYSTEM.norm>
-0.412769

>  <SCORE.heavy>
35

>  <SCORE.norm>
-0.723982

$$$$

  rDOCK(R)          3D
libRbt.so/2013.1/901 2013/11/27
 36 40  0  0  0  0  0  0  0  0999 V2000
   12.6469  -27.6618   -1.9079 C   0  0  0  0  0  0
   11.8650  -27.6330   -0.5887 C   0  0  0  0  0  0
   11.7952  -28.2402   -3.0521 C   0  0  0  0  0  0
   10.7199  -27.2996   -3.4326 N   0  0  0  0  0  0
    9.8547  -27.9108   -4.4624 C   0  0  0  0  0  0
    8.9618  -28.9754   -3.8528 C   0  0  0  0  0  0
    8.8558  -30.3030   -4.3664 C   0  0  0  0  0  0
    9.6264  -30.7074   -5.6024 C   0  0  0  0  0  0
    8.0443  -31.2591   -3.6880 C   0  0  0  0  0  0
    7.9421  -32.6034   -4.1898 N   0  0  0  0  0  0
    8.3565  -33.6843   -3.5942 C   0  0  0  0  0  0
    9.0425  -33.5974   -2.3797 O   0  0  0  0  0  0
    8.1402  -34.9983   -4.2485 C   0  0  0  0  0  0
    7.3949  -35.1171   -5.4315 C   0  0  0  0  0  0
    7.2049  -36.3361   -5.9992 N   0  0  0  0  0  0
    7.7363  -37.4590   -5.4479 C   0  0  0  0  0  0
    7.4723  -38.7917   -6.0649 C   0  0  0  0  0  0
    8.4632  -37.3714   -4.3043 N   0  0  0  0  0  0
    8.6785  -36.1744   -3.7006 C   0  0  0  0  0  0
    7.2907  -30.8509   -2.5703 C   0  0  0  0  0  0
    7.4077  -29.5736   -2.1422 N   0  0  0  0  0  0
    6.8088  -28.9594   -1.1133 C   0  0  0  0  0  0
    7.2686  -27.6556   -1.0947 C   0  0  0  0  0  0
    8.1472  -27.4590   -2.1064 N   0  0  0  0  0  0
    8.1990  -28.6609   -2.7208 C   0  0  0  0  0  0
   11.3066  -26.0334   -3.9206 C   0  0  0  0  0  0
   12.1040  -25.3639   -2.8013 C   0  0  0  0  0  0
   13.0969  -26.3063   -2.2671 N   0  0  0  0  0  0
   14.4903  -25.9358   -2.2174 C   0  0  0  0  0  0
   14.9586  -25.1628   -3.0988 O   0  0  0  0  0  0
   15.3931  -26.4008   -1.0907 C   0  0  0  0  0  0
   16.7953  -25.7963   -1.2052 C   0  0  0  0  0  0
   16.8523  -24.6169   -0.2331 C   0  0  0  0  0  0
   15.5400  -24.6072    0.5451 C   0  0  0  0  0  0
   14.8634  -25.9387    0.2635 C   0  0  0  0  0  0
    9.4163  -34.4087   -1.9053 H   0  0  0  0  0  0
  1  2  1  0  0  0
  1  3  1  0  0  0
  3  4  1  0  0  0
  4  5  1  0  0  0
  5  6  1  0  0  0
  6  7  2  0  0  0
  7  8  1  0  0  0
  7  9  1  0  0  0
  9 10  1  0  0  0
 10 11  2  0  0  0
 11 12  1  0  0  0
 11 13  1  0  0  0
 13 14  2  0  0  0
 14 15  1  0  0  0
 15 16  2  0  0  0
 16 17  1  0  0  0
 16 18  1  0  0  0
 18 19  2  0  0  0
  9 20  2  0  0  0
 20 21  1  0  0  0
 21 22  1  0  0  0
 22 23  2  0  0  0
 23 24  1  0  0  0
 24 25  2  0  0  0
  4 26  1  0  0  0
 26 27  1  0  0  0
 27 28  1  0  0  0
 28 29  1  0  0  0
 29 30  2  0  0  0
 29 31  1  0  0  0
 31 32  1  0  0  0
 32 33  1  0  0  0
 33 34  1  0  0  0
 34 35  1  0  0  0
 28  1  1  0  0  0
 35 31  1  0  0  0
 25  6  1  0  0  0
 19 13  1  0  0  0
 25 21  1  0  0  0
 12 36  1  0  0  0
M  END
>  <CHROM.0>
-150.68496589,-26.83062675,-166.28915364,61.25736466,173.02856982,14.73024653
-49.00797715,170.75753896,-3.59760288

>  <CHROM.1>
73.93301722,-128.29775155,115.13626478,-177.24926854,-5.88086742,-175.86555452
10.44659141,-29.83091501,-2.95801040,-1.00349922,0.08146759,-2.87147428

>  <Name>

>  <RI>
1.24701e+07

>  <Rbt.Current_Directory>
/extra/banzai2/j5wagner/CELPP/2016_10_17_rdock_implementation/normal_run/tutorialVideo/tutorial_rdock_implementation/full_week_run/4-docking/5m96/hiTanimoto_5iz0_docking

>  <Rbt.Executable>
rbdock ($Id: //depot/dev/client3/rdock/2013.1/src/exe/rbdock.cxx#4 $)

>  <Rbt.Library>
libRbt.so (2013.1, Build901 2013/11/27)

>  <Rbt.Parameter_File>
/home/j5wagner/env_00/source/rDock/rDock_2013.1_src//data/scripts/dock.prm

>  <Rbt.Receptor>
/extra/banzai2/j5wagner/CELPP/2016_10_17_rdock_implementation/normal_run/tutorialVideo/tutorial_rdock_implementation/full_week_run/4-docking/5m96/hiTanimoto_5iz0_tech_prep/rDockGridGenInput.prm

>  <SCORE>
-23.3932

>  <SCORE.INTER>
-8.44717

>  <SCORE.INTER.CONST>
1

>  <SCORE.INTER.POLAR>
0

>  <SCORE.INTER.REPUL>
0.0161599

>  <SCORE.INTER.ROT>
5

>  <SCORE.INTER.VDW>
-18.928

>  <SCORE.INTER.norm>
-0.241348

>  <SCORE.INTRA>
-0.632996

>  <SCORE.INTRA.DIHEDRAL>
-2.60853

>  <SCORE.INTRA.DIHEDRAL.0>
9.74364

>  <SCORE.INTRA.POLAR>
0

>  <SCORE.INTRA.POLAR.0>
0

>  <SCORE.INTRA.REPUL>
0.0958892

>  <SCORE.INTRA.REPUL.0>
0.108387

>  <SCORE.INTRA.VDW>
0.191821

>  <SCORE.INTRA.VDW.0>
-2.87247

>  <SCORE.INTRA.norm>
-0.0180856

>  <SCORE.RESTR>
0

>  <SCORE.RESTR.CAVITY>
0

>  <SCORE.RESTR.norm>
0

>  <SCORE.SYSTEM>
-14.313

>  <SCORE.SYSTEM.CONST>
0

>  <SCORE.SYSTEM.DIHEDRAL>
3.91439

>  <SCORE.SYSTEM.POLAR>
-4.35021

>  <SCORE.SYSTEM.REPUL>
0.0358649

>  <SCORE.SYSTEM.VDW>
-1.65885

>  <SCORE.SYSTEM.norm>
-0.408944

>  <SCORE.heavy>
35

>  <SCORE.norm>
-0.668377

$$$$

  rDOCK(R)          3D
libRbt.so/2013.1/901 2013/11/27
 36 40  0  0  0  0  0  0  0  0999 V2000
   13.9355  -25.9767   -1.8698 C   0  0  0  0  0  0
   13.6513  -25.1537   -3.1325 C   0  0  0  0  0  0
   12.6427  -26.5769   -1.2888 C   0  0  0  0  0  0
   12.1248  -27.6515   -2.1623 N   0  0  0  0  0  0
   10.8346  -28.1483   -1.6417 C   0  0  0  0  0  0
    9.8629  -28.4148   -2.7762 C   0  0  0  0  0  0
    9.3674  -29.7137   -3.1000 C   0  0  0  0  0  0
    9.8337  -30.9242   -2.3240 C   0  0  0  0  0  0
    8.4025  -29.8617   -4.1393 C   0  0  0  0  0  0
    7.8868  -31.1648   -4.4637 N   0  0  0  0  0  0
    8.5488  -32.1443   -5.0090 C   0  0  0  0  0  0
    9.8738  -31.9572   -5.4121 O   0  0  0  0  0  0
    7.8613  -33.4375   -5.2462 C   0  0  0  0  0  0
    6.5956  -33.7080   -4.7041 C   0  0  0  0  0  0
    5.9981  -34.9065   -4.9297 N   0  0  0  0  0  0
    6.5998  -35.8603   -5.6883 C   0  0  0  0  0  0
    5.9434  -37.1864   -5.8811 C   0  0  0  0  0  0
    7.8239  -35.6232   -6.2262 N   0  0  0  0  0  0
    8.4599  -34.4404   -6.0267 C   0  0  0  0  0  0
    8.0205  -28.7316   -4.8881 C   0  0  0  0  0  0
    8.5417  -27.5288   -4.5563 N   0  0  0  0  0  0
    8.3303  -26.3254   -5.1057 C   0  0  0  0  0  0
    9.0956  -25.4160   -4.3994 C   0  0  0  0  0  0
    9.7802  -26.0493   -3.4174 N   0  0  0  0  0  0
    9.4098  -27.3413   -3.5538 C   0  0  0  0  0  0
   13.1133  -28.7470   -2.2544 C   0  0  0  0  0  0
   14.4002  -28.2339   -2.9004 C   0  0  0  0  0  0
   14.8896  -27.0586   -2.1665 N   0  0  0  0  0  0
   16.2379  -27.0376   -1.6538 C   0  0  0  0  0  0
   16.7788  -28.1173   -1.2859 O   0  0  0  0  0  0
   17.0470  -25.7554   -1.6079 C   0  0  0  0  0  0
   16.9908  -25.1021   -0.2241 C   0  0  0  0  0  0
   18.2852  -25.4784    0.4986 C   0  0  0  0  0  0
   19.1569  -26.2364   -0.4980 C   0  0  0  0  0  0
   18.5257  -26.0300   -1.8652 C   0  0  0  0  0  0
   10.4086  -32.6777   -5.8788 H   0  0  0  0  0  0
  1  2  1  0  0  0
  1  3  1  0  0  0
  3  4  1  0  0  0
  4  5  1  0  0  0
  5  6  1  0  0  0
  6  7  2  0  0  0
  7  8  1  0  0  0
  7  9  1  0  0  0
  9 10  1  0  0  0
 10 11  2  0  0  0
 11 12  1  0  0  0
 11 13  1  0  0  0
 13 14  2  0  0  0
 14 15  1  0  0  0
 15 16  2  0  0  0
 16 17  1  0  0  0
 16 18  1  0  0  0
 18 19  2  0  0  0
  9 20  2  0  0  0
 20 21  1  0  0  0
 21 22  1  0  0  0
 22 23  2  0  0  0
 23 24  1  0  0  0
 24 25  2  0  0  0
  4 26  1  0  0  0
 26 27  1  0  0  0
 27 28  1  0  0  0
 28 29  1  0  0  0
 29 30  2  0  0  0
 29 31  1  0  0  0
 31 32  1  0  0  0
 32 33  1  0  0  0
 33 34  1  0  0  0
 34 35  1  0  0  0
 28  1  1  0  0  0
 35 31  1  0  0  0
 25  6  1  0  0  0
 19 13  1  0  0  0
 25 21  1  0  0  0
 12 36  1  0  0  0
M  END
>  <CHROM.0>
-151.54052228,-30.73707731,-167.52443209,55.04730370,-10.33490191,12.76430646
170.74125157,-67.10934577,-12.53889662

>  <CHROM.1>
139.93128924,115.31869849,-68.24292386,-177.02704360,-10.69732121,97.30822925
11.36273126,-29.19252832,-3.28864570,0.69713768,-0.32361142,0.12088522

>  <Name>

>  <RI>
1.24701e+07

>  <Rbt.Current_Directory>
/extra/banzai2/j5wagner/CELPP/2016_10_17_rdock_implementation/normal_run/tutorialVideo/tutorial_rdock_implementation/full_week_run/4-docking/5m96/hiTanimoto_5iz0_docking

>  <Rbt.Executable>
rbdock ($Id: //depot/dev/client3/rdock/2013.1/src/exe/rbdock.cxx#4 $)

>  <Rbt.Library>
libRbt.so (2013.1, Build901 2013/11/27)

>  <Rbt.Parameter_File>
/home/j5wagner/env_00/source/rDock/rDock_2013.1_src//data/scripts/dock.prm

>  <Rbt.Receptor>
/extra/banzai2/j5wagner/CELPP/2016_10_17_rdock_implementation/normal_run/tutorialVideo/tutorial_rdock_implementation/full_week_run/4-docking/5m96/hiTanimoto_5iz0_tech_prep/rDockGridGenInput.prm

>  <SCORE>
-26.2258

>  <SCORE.INTER>
-11.7317

>  <SCORE.INTER.CONST>
1

>  <SCORE.INTER.POLAR>
0

>  <SCORE.INTER.REPUL>
0

>  <SCORE.INTER.ROT>
5

>  <SCORE.INTER.VDW>
-22.1317

>  <SCORE.INTER.norm>
-0.335191

>  <SCORE.INTRA>
0.155971

>  <SCORE.INTRA.DIHEDRAL>
1.28821

>  <SCORE.INTRA.DIHEDRAL.0>
9.74364

>  <SCORE.INTRA.POLAR>
0

>  <SCORE.INTRA.POLAR.0>
0

>  <SCORE.INTRA.REPUL>
-0.0680923

>  <SCORE.INTRA.REPUL.0>
0.108387

>  <SCORE.INTRA.VDW>
-0.147671

>  <SCORE.INTRA.VDW.0>
-2.87247

>  <SCORE.INTRA.norm>
0.00445632

>  <SCORE.RESTR>
0

>  <SCORE.RESTR.CAVITY>
0

>  <SCORE.RESTR.norm>
0

>  <SCORE.SYSTEM>
-14.6501

>  <SCORE.SYSTEM.CONST>
0

>  <SCORE.SYSTEM.DIHEDRAL>
4.04233

>  <SCORE.SYSTEM.POLAR>
-4.49514

>  <SCORE.SYSTEM.REPUL>
0.0208414

>  <SCORE.SYSTEM.VDW>
-1.49197

>  <SCORE.SYSTEM.norm>
-0.418573

>  <SCORE.heavy>
35

>  <SCORE.norm>
-0.749308

$$$$

  rDOCK(R)          3D
libRbt.so/2013.1/901 2013/11/27
 36 40  0  0  0  0  0  0  0  0999 V2000
   10.1992  -30.9320   -3.9480 C   0  0  0  0  0  0
   10.5711  -30.3440   -5.3149 C   0  0  0  0  0  0
   10.2140  -29.8528   -2.8506 C   0  0  0  0  0  0
    9.0841  -28.9148   -3.0222 N   0  0  0  0  0  0
    9.1698  -27.8316   -2.0212 C   0  0  0  0  0  0
   10.3008  -26.8772   -2.3561 C   0  0  0  0  0  0
   11.5454  -26.8551   -1.6576 C   0  0  0  0  0  0
   11.7836  -27.7876   -0.4920 C   0  0  0  0  0  0
   12.5789  -25.9709   -2.0857 C   0  0  0  0  0  0
   13.8417  -25.9511   -1.3969 N   0  0  0  0  0  0
   15.0199  -26.0616   -1.9397 C   0  0  0  0  0  0
   15.1412  -26.2987   -3.3116 O   0  0  0  0  0  0
   16.2235  -25.9886   -1.0752 C   0  0  0  0  0  0
   17.5168  -26.1274   -1.6018 C   0  0  0  0  0  0
   18.5978  -26.0678   -0.7818 N   0  0  0  0  0  0
   18.4564  -25.8626    0.5542 C   0  0  0  0  0  0
   19.6573  -25.8493    1.4398 C   0  0  0  0  0  0
   17.2160  -25.7232    1.0889 N   0  0  0  0  0  0
   16.1063  -25.7768    0.3085 C   0  0  0  0  0  0
   12.3210  -25.0709   -3.1379 C   0  0  0  0  0  0
   11.1145  -25.1159   -3.7471 N   0  0  0  0  0  0
   10.6416  -24.3788   -4.7608 C   0  0  0  0  0  0
    9.3558  -24.8178   -5.0173 C   0  0  0  0  0  0
    9.0299  -25.8210   -4.1679 N   0  0  0  0  0  0
   10.1375  -25.9672   -3.4085 C   0  0  0  0  0  0
    7.8024  -29.6420   -2.9038 C   0  0  0  0  0  0
    7.6883  -30.6806   -4.0196 C   0  0  0  0  0  0
    8.8672  -31.5577   -4.0040 N   0  0  0  0  0  0
    8.7015  -32.9885   -3.9232 C   0  0  0  0  0  0
    7.7162  -33.4645   -3.2937 O   0  0  0  0  0  0
    9.6486  -33.9361   -4.6343 C   0  0  0  0  0  0
    9.3410  -35.3982   -4.2989 C   0  0  0  0  0  0
    8.5311  -35.9620   -5.4674 C   0  0  0  0  0  0
    8.4750  -34.8815   -6.5430 C   0  0  0  0  0  0
    9.4981  -33.8288   -6.1488 C   0  0  0  0  0  0
   16.0371  -26.3896   -3.7721 H   0  0  0  0  0  0
  1  2  1  0  0  0
  1  3  1  0  0  0
  3  4  1  0  0  0
  4  5  1  0  0  0
  5  6  1  0  0  0
  6  7  2  0  0  0
  7  8  1  0  0  0
  7  9  1  0  0  0
  9 10  1  0  0  0
 10 11  2  0  0  0
 11 12  1  0  0  0
 11 13  1  0  0  0
 13 14  2  0  0  0
 14 15  1  0  0  0
 15 16  2  0  0  0
 16 17  1  0  0  0
 16 18  1  0  0  0
 18 19  2  0  0  0
  9 20  2  0  0  0
 20 21  1  0  0  0
 21 22  1  0  0  0
 22 23  2  0  0  0
 23 24  1  0  0  0
 24 25  2  0  0  0
  4 26  1  0  0  0
 26 27  1  0  0  0
 27 28  1  0  0  0
 28 29  1  0  0  0
 29 30  2  0  0  0
 29 31  1  0  0  0
 31 32  1  0  0  0
 32 33  1  0  0  0
 33 34  1  0  0  0
 34 35  1  0  0  0
 28  1  1  0  0  0
 35 31  1  0  0  0
 25  6  1  0  0  0
 19 13  1  0  0  0
 25 21  1  0  0  0
 12 36  1  0  0  0
M  END
>  <CHROM.0>
23.27770621,3.66475161,-46.92281243,56.98568145,37.47790151,9.72681316,-50.37264357
65.15649174,-1.91589950

>  <CHROM.1>
72.35091225,-104.69093344,128.24096442,179.91967408,178.73723286,175.01383845
11.74990185,-28.60257114,-2.87587285,-2.40943561,-0.41030269,0.07944449

>  <Name>

>  <RI>
1.24701e+07

>  <Rbt.Current_Directory>
/extra/banzai2/j5wagner/CELPP/2016_10_17_rdock_implementation/normal_run/tutorialVideo/tutorial_rdock_implementation/full_week_run/4-docking/5m96/hiTanimoto_5iz0_docking

>  <Rbt.Executable>
rbdock ($Id: //depot/dev/client3/rdock/2013.1/src/exe/rbdock.cxx#4 $)

>  <Rbt.Library>
libRbt.so (2013.1, Build901 2013/11/27)

>  <Rbt.Parameter_File>
/home/j5wagner/env_00/source/rDock/rDock_2013.1_src//data/scripts/dock.prm

>  <Rbt.Receptor>
/extra/banzai2/j5wagner/CELPP/2016_10_17_rdock_implementation/normal_run/tutorialVideo/tutorial_rdock_implementation/full_week_run/4-docking/5m96/hiTanimoto_5iz0_tech_prep/rDockGridGenInput.prm

>  <SCORE>
-34.3522

>  <SCORE.INTER>
-20.8358

>  <SCORE.INTER.CONST>
1

>  <SCORE.INTER.POLAR>
-1.17533

>  <SCORE.INTER.REPUL>
0

>  <SCORE.INTER.ROT>
5

>  <SCORE.INTER.VDW>
-27.2397

>  <SCORE.INTER.norm>
-0.595309

>  <SCORE.INTRA>
-1.93934

>  <SCORE.INTRA.DIHEDRAL>
-3.8501

>  <SCORE.INTRA.DIHEDRAL.0>
9.74364

>  <SCORE.INTRA.POLAR>
0

>  <SCORE.INTRA.POLAR.0>
0

>  <SCORE.INTRA.REPUL>
-0.108387

>  <SCORE.INTRA.REPUL.0>
0.108387

>  <SCORE.INTRA.VDW>
0.527645

>  <SCORE.INTRA.VDW.0>
-2.87247

>  <SCORE.INTRA.norm>
-0.0554098

>  <SCORE.RESTR>
0

>  <SCORE.RESTR.CAVITY>
0

>  <SCORE.RESTR.norm>
0

>  <SCORE.SYSTEM>
-11.5771

>  <SCORE.SYSTEM.CONST>
0

>  <SCORE.SYSTEM.DIHEDRAL>
3.74424

>  <SCORE.SYSTEM.POLAR>
-3.69616

>  <SCORE.SYSTEM.REPUL>
0.0565473

>  <SCORE.SYSTEM.VDW>
-1.16502

>  <SCORE.SYSTEM.norm>
-0.330774

>  <SCORE.heavy>
35

>  <SCORE.norm>
-0.981493

$$$$

  rDOCK(R)          3D
libRbt.so/2013.1/901 2013/11/27
 36 40  0  0  0  0  0  0  0  0999 V2000
   10.0278  -30.7460   -3.4025 C   0  0  0  0  0  0
   11.3672  -30.5643   -4.1274 C   0  0  0  0  0  0
    9.6787  -29.5117   -2.5517 C   0  0  0  0  0  0
    9.3294  -28.3624   -3.4137 N   0  0  0  0  0  0
    9.0928  -27.1624   -2.5850 C   0  0  0  0  0  0
   10.2290  -26.1687   -2.7396 C   0  0  0  0  0  0
   11.4614  -26.2642   -2.0257 C   0  0  0  0  0  0
   11.6798  -27.3755   -1.0247 C   0  0  0  0  0  0
   12.5017  -25.3243   -2.2855 C   0  0  0  0  0  0
   13.7524  -25.4205   -1.5812 N   0  0  0  0  0  0
   14.9062  -25.7362   -2.0949 C   0  0  0  0  0  0
   14.9992  -26.1010   -3.4408 O   0  0  0  0  0  0
   16.1049  -25.7572   -1.2208 C   0  0  0  0  0  0
   17.3778  -26.0647   -1.7252 C   0  0  0  0  0  0
   18.4534  -26.0875   -0.8964 N   0  0  0  0  0  0
   18.3275  -25.8043    0.4269 C   0  0  0  0  0  0
   19.5167  -25.8832    1.3248 C   0  0  0  0  0  0
   17.1073  -25.5017    0.9400 N   0  0  0  0  0  0
   16.0035  -25.4679    0.1501 C   0  0  0  0  0  0
   12.2615  -24.2635   -3.1804 C   0  0  0  0  0  0
   11.0658  -24.2054   -3.8093 N   0  0  0  0  0  0
   10.6101  -23.3111   -4.6965 C   0  0  0  0  0  0
    9.3292  -23.6991   -5.0435 C   0  0  0  0  0  0
    8.9892  -24.8271   -4.3756 N   0  0  0  0  0  0
   10.0835  -25.0982   -3.6314 C   0  0  0  0  0  0
    8.1374  -28.6853   -4.2264 C   0  0  0  0  0  0
    8.4442  -29.8587   -5.1569 C   0  0  0  0  0  0
    8.9488  -30.9948   -4.3733 N   0  0  0  0  0  0
    8.3105  -32.2843   -4.4781 C   0  0  0  0  0  0
    7.0703  -32.3461   -4.7062 O   0  0  0  0  0  0
    9.1075  -33.5716   -4.3863 C   0  0  0  0  0  0
    8.2025  -34.8033   -4.4797 C   0  0  0  0  0  0
    8.2935  -35.3143   -5.9185 C   0  0  0  0  0  0
    9.3454  -34.4713   -6.6331 C   0  0  0  0  0  0
   10.0830  -33.6976   -5.5526 C   0  0  0  0  0  0
   15.8820  -26.3028   -3.8912 H   0  0  0  0  0  0
  1  2  1  0  0  0
  1  3  1  0  0  0
  3  4  1  0  0  0
  4  5  1  0  0  0
  5  6  1  0  0  0
  6  7  2  0  0  0
  7  8  1  0  0  0
  7  9  1  0  0  0
  9 10  1  0  0  0
 10 11  2  0  0  0
 11 12  1  0  0  0
 11 13  1  0  0  0
 13 14  2  0  0  0
 14 15  1  0  0  0
 15 16  2  0  0  0
 16 17  1  0  0  0
 16 18  1  0  0  0
 18 19  2  0  0  0
  9 20  2  0  0  0
 20 21  1  0  0  0
 21 22  1  0  0  0
 22 23  2  0  0  0
 23 24  1  0  0  0
 24 25  2  0  0  0
  4 26  1  0  0  0
 26 27  1  0  0  0
 27 28  1  0  0  0
 28 29  1  0  0  0
 29 30  2  0  0  0
 29 31  1  0  0  0
 31 32  1  0  0  0
 32 33  1  0  0  0
 33 34  1  0  0  0
 34 35  1  0  0  0
 28  1  1  0  0  0
 35 31  1  0  0  0
 25  6  1  0  0  0
 19 13  1  0  0  0
 25 21  1  0  0  0
 12 36  1  0  0  0
M  END
>  <CHROM.0>
37.77408884,-26.36493796,-166.85280988,57.81784692,-22.28808857,15.11837368
169.82653193,-60.65365482,-110.69204163

>  <CHROM.1>
107.91575584,-82.05575897,112.03324365,176.48121946,-178.74485578,178.12601563
11.69828024,-28.09614411,-3.07913763,-2.41476257,-0.43186354,0.07277547

>  <Name>

>  <RI>
1.24701e+07

>  <Rbt.Current_Directory>
/extra/banzai2/j5wagner/CELPP/2016_10_17_rdock_implementation/normal_run/tutorialVideo/tutorial_rdock_implementation/full_week_run/4-docking/5m96/hiTanimoto_5iz0_docking

>  <Rbt.Executable>
rbdock ($Id: //depot/dev/client3/rdock/2013.1/src/exe/rbdock.cxx#4 $)

>  <Rbt.Library>
libRbt.so (2013.1, Build901 2013/11/27)

>  <Rbt.Parameter_File>
/home/j5wagner/env_00/source/rDock/rDock_2013.1_src//data/scripts/dock.prm

>  <Rbt.Receptor>
/extra/banzai2/j5wagner/CELPP/2016_10_17_rdock_implementation/normal_run/tutorialVideo/tutorial_rdock_implementation/full_week_run/4-docking/5m96/hiTanimoto_5iz0_tech_prep/rDockGridGenInput.prm

>  <SCORE>
-32.3943

>  <SCORE.INTER>
-21.4595

>  <SCORE.INTER.CONST>
1

>  <SCORE.INTER.POLAR>
-1.83661

>  <SCORE.INTER.REPUL>
0

>  <SCORE.INTER.ROT>
5

>  <SCORE.INTER.VDW>
-25.615

>  <SCORE.INTER.norm>
-0.613129

>  <SCORE.INTRA>
-0.313407

>  <SCORE.INTRA.DIHEDRAL>
-0.357297

>  <SCORE.INTRA.DIHEDRAL.0>
9.74364

>  <SCORE.INTRA.POLAR>
0

>  <SCORE.INTRA.POLAR.0>
0

>  <SCORE.INTRA.REPUL>
-0.108387

>  <SCORE.INTRA.REPUL.0>
0.108387

>  <SCORE.INTRA.VDW>
0.407178

>  <SCORE.INTRA.VDW.0>
-2.87247

>  <SCORE.INTRA.norm>
-0.00895447

>  <SCORE.RESTR>
0

>  <SCORE.RESTR.CAVITY>
0

>  <SCORE.RESTR.norm>
0

>  <SCORE.SYSTEM>
-10.6214

>  <SCORE.SYSTEM.CONST>
0

>  <SCORE.SYSTEM.DIHEDRAL>
8.83255

>  <SCORE.SYSTEM.POLAR>
-3.76378

>  <SCORE.SYSTEM.REPUL>
0.00698959

>  <SCORE.SYSTEM.VDW>
-2.27578

>  <SCORE.SYSTEM.norm>
-0.303469

>  <SCORE.heavy>
35

>  <SCORE.norm>
-0.925552

$$$$

  rDOCK(R)          3D
libRbt.so/2013.1/901 2013/11/27
 36 40  0  0  0  0  0  0  0  0999 V2000
    7.7324  -31.9828   -4.5529 C   0  0  0  0  0  0
    7.3873  -32.1043   -3.0634 C   0  0  0  0  0  0
    8.5551  -30.7131   -4.8362 C   0  0  0  0  0  0
    9.9209  -30.8393   -4.2844 N   0  0  0  0  0  0
   10.6634  -29.5770   -4.4792 C   0  0  0  0  0  0
   10.9873  -28.9315   -3.1448 C   0  0  0  0  0  0
   12.3142  -28.6148   -2.7246 C   0  0  0  0  0  0
   13.4953  -28.9538   -3.6048 C   0  0  0  0  0  0
   12.5199  -27.9450   -1.4827 C   0  0  0  0  0  0
   13.8523  -27.6091   -1.0571 N   0  0  0  0  0  0
   14.1974  -26.5808   -0.3371 C   0  0  0  0  0  0
   13.2421  -25.6295    0.0314 O   0  0  0  0  0  0
   15.6226  -26.4057    0.0365 C   0  0  0  0  0  0
   16.0002  -25.6853    1.1799 C   0  0  0  0  0  0
   17.3141  -25.5327    1.4878 N   0  0  0  0  0  0
   18.2863  -26.0784    0.7106 C   0  0  0  0  0  0
   19.7235  -25.8554    1.0444 C   0  0  0  0  0  0
   17.9478  -26.7819   -0.4004 N   0  0  0  0  0  0
   16.6475  -26.9595   -0.7485 C   0  0  0  0  0  0
   11.4136  -27.6859   -0.6504 C   0  0  0  0  0  0
   10.1810  -28.0318   -1.0857 N   0  0  0  0  0  0
    8.9914  -27.8843   -0.4875 C   0  0  0  0  0  0
    8.0373  -28.3937   -1.3489 C   0  0  0  0  0  0
    8.6293  -28.8564   -2.4757 N   0  0  0  0  0  0
    9.9419  -28.6145   -2.2677 C   0  0  0  0  0  0
   10.6232  -31.9690   -4.9296 C   0  0  0  0  0  0
    9.8981  -33.2784   -4.6188 C   0  0  0  0  0  0
    8.4843  -33.1662   -5.0034 N   0  0  0  0  0  0
    7.9004  -34.1358   -5.8981 C   0  0  0  0  0  0
    8.6191  -34.6717   -6.7869 O   0  0  0  0  0  0
    6.4564  -34.5769   -5.7536 C   0  0  0  0  0  0
    6.1323  -35.7571   -6.6738 C   0  0  0  0  0  0
    6.1901  -37.0208   -5.8141 C   0  0  0  0  0  0
    6.4153  -36.5777   -4.3717 C   0  0  0  0  0  0
    6.1741  -35.0774   -4.3402 C   0  0  0  0  0  0
   13.4881  -24.7497    0.4655 H   0  0  0  0  0  0
  1  2  1  0  0  0
  1  3  1  0  0  0
  3  4  1  0  0  0
  4  5  1  0  0  0
  5  6  1  0  0  0
  6  7  2  0  0  0
  7  8  1  0  0  0
  7  9  1  0  0  0
  9 10  1  0  0  0
 10 11  2  0  0  0
 11 12  1  0  0  0
 11 13  1  0  0  0
 13 14  2  0  0  0
 14 15  1  0  0  0
 15 16  2  0  0  0
 16 17  1  0  0  0
 16 18  1  0  0  0
 18 19  2  0  0  0
  9 20  2  0  0  0
 20 21  1  0  0  0
 21 22  1  0  0  0
 22 23  2  0  0  0
 23 24  1  0  0  0
 24 25  2  0  0  0
  4 26  1  0  0  0
 26 27  1  0  0  0
 27 28  1  0  0  0
 28 29  1  0  0  0
 29 30  2  0  0  0
 29 31  1  0  0  0
 31 32  1  0  0  0
 32 33  1  0  0  0
 33 34  1  0  0  0
 34 35  1  0  0  0
 28  1  1  0  0  0
 35 31  1  0  0  0
 25  6  1  0  0  0
 19 13  1  0  0  0
 25 21  1  0  0  0
 12 36  1  0  0  0
M  END
>  <CHROM.0>
2.65762780,-30.02789264,73.05338515,59.61262404,172.21285377,14.65484242
73.90754536,167.84038259,-107.72817532

>  <CHROM.1>
114.74490002,122.78192241,148.45022367,-170.41561101,-154.65566909,-171.35158199
11.12784262,-30.00734317,-2.68314995,2.31118770,-0.00295869,-2.54654364

>  <Name>

>  <RI>
1.24701e+07

>  <Rbt.Current_Directory>
/extra/banzai2/j5wagner/CELPP/2016_10_17_rdock_implementation/normal_run/tutorialVideo/tutorial_rdock_implementation/full_week_run/4-docking/5m96/hiTanimoto_5iz0_docking

>  <Rbt.Executable>
rbdock ($Id: //depot/dev/client3/rdock/2013.1/src/exe/rbdock.cxx#4 $)

>  <Rbt.Library>
libRbt.so (2013.1, Build901 2013/11/27)

>  <Rbt.Parameter_File>
/home/j5wagner/env_00/source/rDock/rDock_2013.1_src//data/scripts/dock.prm

>  <Rbt.Receptor>
/extra/banzai2/j5wagner/CELPP/2016_10_17_rdock_implementation/normal_run/tutorialVideo/tutorial_rdock_implementation/full_week_run/4-docking/5m96/hiTanimoto_5iz0_tech_prep/rDockGridGenInput.prm

>  <SCORE>
-36.1819

>  <SCORE.INTER>
-22.5713

>  <SCORE.INTER.CONST>
1

>  <SCORE.INTER.POLAR>
-0.91938

>  <SCORE.INTER.REPUL>
0

>  <SCORE.INTER.ROT>
5

>  <SCORE.INTER.VDW>
-29.8454

>  <SCORE.INTER.norm>
-0.644895

>  <SCORE.INTRA>
-0.696526

>  <SCORE.INTRA.DIHEDRAL>
-1.02696

>  <SCORE.INTRA.DIHEDRAL.0>
9.74364

>  <SCORE.INTRA.POLAR>
0

>  <SCORE.INTRA.POLAR.0>
0

>  <SCORE.INTRA.REPUL>
-0.108387

>  <SCORE.INTRA.REPUL.0>
0.108387

>  <SCORE.INTRA.VDW>
0.358893

>  <SCORE.INTRA.VDW.0>
-2.87247

>  <SCORE.INTRA.norm>
-0.0199007

>  <SCORE.RESTR>
0

>  <SCORE.RESTR.CAVITY>
0

>  <SCORE.RESTR.norm>
0

>  <SCORE.SYSTEM>
-12.9141

>  <SCORE.SYSTEM.CONST>
0

>  <SCORE.SYSTEM.DIHEDRAL>
7.9367

>  <SCORE.SYSTEM.POLAR>
-4.45561

>  <SCORE.SYSTEM.VDW>
-1.73335

>  <SCORE.SYSTEM.norm>
-0.368973

>  <SCORE.heavy>
35

>  <SCORE.norm>
-1.03377

$$$$

  rDOCK(R)          3D
libRbt.so/2013.1/901 2013/11/27
 36 40  0  0  0  0  0  0  0  0999 V2000
   12.3726  -27.6767   -1.7176 C   0  0  0  0  0  0
   11.4829  -27.3478   -0.5123 C   0  0  0  0  0  0
   11.5605  -28.3224   -2.8546 C   0  0  0  0  0  0
   10.6616  -27.3321   -3.4848 N   0  0  0  0  0  0
    9.8211  -27.9903   -4.5061 C   0  0  0  0  0  0
    8.9275  -29.0404   -3.8729 C   0  0  0  0  0  0
    8.8075  -30.3742   -4.3669 C   0  0  0  0  0  0
    9.5627  -30.8007   -5.6050 C   0  0  0  0  0  0
    7.9967  -31.3154   -3.6672 C   0  0  0  0  0  0
    7.8805  -32.6657   -4.1493 N   0  0  0  0  0  0
    8.4024  -33.7277   -3.6065 C   0  0  0  0  0  0
    9.2291  -33.6092   -2.4859 O   0  0  0  0  0  0
    8.1532  -35.0527   -4.2260 C   0  0  0  0  0  0
    8.6619  -36.2342   -3.6653 C   0  0  0  0  0  0
    8.4262  -37.4304   -4.2635 N   0  0  0  0  0  0
    7.6892  -37.5139   -5.4024 C   0  0  0  0  0  0
    7.4854  -38.8348   -6.0659 C   0  0  0  0  0  0
    7.1837  -36.3859   -5.9643 N   0  0  0  0  0  0
    7.3945  -35.1679   -5.4026 C   0  0  0  0  0  0
    7.2573  -30.8868   -2.5476 C   0  0  0  0  0  0
    7.3871  -29.6045   -2.1385 N   0  0  0  0  0  0
    6.8028  -28.9721   -1.1121 C   0  0  0  0  0  0
    7.2714  -27.6713   -1.1162 C   0  0  0  0  0  0
    8.1409  -27.4946   -2.1393 N   0  0  0  0  0  0
    8.1784  -28.7052   -2.7376 C   0  0  0  0  0  0
   11.4562  -26.2374   -4.0814 C   0  0  0  0  0  0
   12.2293  -25.5000   -2.9882 C   0  0  0  0  0  0
   13.0324  -26.4579   -2.2158 N   0  0  0  0  0  0
   14.4524  -26.2528   -2.0643 C   0  0  0  0  0  0
   15.1002  -25.6895   -2.9899 O   0  0  0  0  0  0
   15.1759  -26.6389   -0.7884 C   0  0  0  0  0  0
   16.6441  -26.9831   -1.0544 C   0  0  0  0  0  0
   17.4658  -25.7491   -0.6782 C   0  0  0  0  0  0
   16.5043  -24.7326   -0.0701 C   0  0  0  0  0  0
   15.2062  -25.4761    0.1990 C   0  0  0  0  0  0
    9.6471  -34.4092   -2.0297 H   0  0  0  0  0  0
  1  2  1  0  0  0
  1  3  1  0  0  0
  3  4  1  0  0  0
  4  5  1  0  0  0
  5  6  1  0  0  0
  6  7  2  0  0  0
  7  8  1  0  0  0
  7  9  1  0  0  0
  9 10  1  0  0  0
 10 11  2  0  0  0
 11 12  1  0  0  0
 11 13  1  0  0  0
 13 14  2  0  0  0
 14 15  1  0  0  0
 15 16  2  0  0  0
 16 17  1  0  0  0
 16 18  1  0  0  0
 18 19  2  0  0  0
  9 20  2  0  0  0
 20 21  1  0  0  0
 21 22  1  0  0  0
 22 23  2  0  0  0
 23 24  1  0  0  0
 24 25  2  0  0  0
  4 26  1  0  0  0
 26 27  1  0  0  0
 27 28  1  0  0  0
 28 29  1  0  0  0
 29 30  2  0  0  0
 29 31  1  0  0  0
 31 32  1  0  0  0
 32 33  1  0  0  0
 33 34  1  0  0  0
 34 35  1  0  0  0
 28  1  1  0  0  0
 35 31  1  0  0  0
 25  6  1  0  0  0
 19 13  1  0  0  0
 25 21  1  0  0  0
 12 36  1  0  0  0
M  END
>  <CHROM.0>
-151.01824914,-30.10619558,-47.78212628,-48.37169256,-167.99096404,11.65198209
75.24836103,171.50145434,-111.66721859

>  <CHROM.1>
62.56743013,-130.61568888,108.21346217,179.43307230,-178.35661402,152.15391263
10.46949394,-29.95954567,-2.96764283,-0.97930078,0.09942858,-2.88279787

>  <Name>

>  <RI>
1.24701e+07

>  <Rbt.Current_Directory>
/extra/banzai2/j5wagner/CELPP/2016_10_17_rdock_implementation/normal_run/tutorialVideo/tutorial_rdock_implementation/full_week_run/4-docking/5m96/hiTanimoto_5iz0_docking

>  <Rbt.Executable>
rbdock ($Id: //depot/dev/client3/rdock/2013.1/src/exe/rbdock.cxx#4 $)

>  <Rbt.Library>
libRbt.so (2013.1, Build901 2013/11/27)

>  <Rbt.Parameter_File>
/home/j5wagner/env_00/source/rDock/rDock_2013.1_src//data/scripts/dock.prm

>  <Rbt.Receptor>
/extra/banzai2/j5wagner/CELPP/2016_10_17_rdock_implementation/normal_run/tutorialVideo/tutorial_rdock_implementation/full_week_run/4-docking/5m96/hiTanimoto_5iz0_tech_prep/rDockGridGenInput.prm

>  <SCORE>
-19.1903

>  <SCORE.INTER>
-8.13306

>  <SCORE.INTER.CONST>
1

>  <SCORE.INTER.POLAR>
0

>  <SCORE.INTER.REPUL>
0

>  <SCORE.INTER.ROT>
5

>  <SCORE.INTER.VDW>
-18.5331

>  <SCORE.INTER.norm>
-0.232373

>  <SCORE.INTRA>
0.208727

>  <SCORE.INTRA.DIHEDRAL>
-0.742718

>  <SCORE.INTRA.DIHEDRAL.0>
9.74364

>  <SCORE.INTRA.POLAR>
0

>  <SCORE.INTRA.POLAR.0>
0

>  <SCORE.INTRA.REPUL>
0.104934

>  <SCORE.INTRA.REPUL.0>
0.108387

>  <SCORE.INTRA.VDW>
0.0554168

>  <SCORE.INTRA.VDW.0>
-2.87247

>  <SCORE.INTRA.norm>
0.00596362

>  <SCORE.RESTR>
0

>  <SCORE.RESTR.CAVITY>
0

>  <SCORE.RESTR.norm>
0

>  <SCORE.SYSTEM>
-11.266

>  <SCORE.SYSTEM.CONST>
0

>  <SCORE.SYSTEM.DIHEDRAL>
9.2898

>  <SCORE.SYSTEM.POLAR>
-4.25186

>  <SCORE.SYSTEM.REPUL>
0.00123094

>  <SCORE.SYSTEM.VDW>
-1.46073

>  <SCORE.SYSTEM.norm>
-0.321886

>  <SCORE.heavy>
35

>  <SCORE.norm>
-0.548295

$$$$

  rDOCK(R)          3D
libRbt.so/2013.1/901 2013/11/27
 36 40  0  0  0  0  0  0  0  0999 V2000
   10.2557  -30.8150   -3.9437 C   0  0  0  0  0  0
   10.6477  -30.2242   -5.3038 C   0  0  0  0  0  0
   10.2324  -29.7339   -2.8483 C   0  0  0  0  0  0
    9.0932  -28.8123   -3.0453 N   0  0  0  0  0  0
    9.1427  -27.7264   -2.0449 C   0  0  0  0  0  0
   10.2805  -26.7686   -2.3457 C   0  0  0  0  0  0
   11.5222  -26.7749   -1.6417 C   0  0  0  0  0  0
   11.7502  -27.7440   -0.5043 C   0  0  0  0  0  0
   12.5624  -25.8840   -2.0383 C   0  0  0  0  0  0
   13.8223  -25.8925   -1.3440 N   0  0  0  0  0  0
   15.0015  -26.0052   -1.8840 C   0  0  0  0  0  0
   15.1262  -26.2156   -3.2600 O   0  0  0  0  0  0
   16.2021  -25.9634   -1.0132 C   0  0  0  0  0  0
   17.4912  -26.1714   -1.5272 C   0  0  0  0  0  0
   18.5689  -26.1389   -0.7015 N   0  0  0  0  0  0
   18.4288  -25.8947    0.6281 C   0  0  0  0  0  0
   19.6239  -25.9119    1.5214 C   0  0  0  0  0  0
   17.1926  -25.6881    1.1506 N   0  0  0  0  0  0
   16.0862  -25.7125    0.3640 C   0  0  0  0  0  0
   12.3140  -24.9507   -3.0635 C   0  0  0  0  0  0
   11.1100  -24.9702   -3.6787 N   0  0  0  0  0  0
   10.6455  -24.1997   -4.6713 C   0  0  0  0  0  0
    9.3584  -24.6233   -4.9465 C   0  0  0  0  0  0
    9.0233  -25.6502   -4.1296 N   0  0  0  0  0  0
   10.1268  -25.8258   -3.3704 C   0  0  0  0  0  0
    7.8197  -29.5574   -2.9522 C   0  0  0  0  0  0
    7.7435  -30.5994   -4.0681 C   0  0  0  0  0  0
    8.9342  -31.4596   -4.0262 N   0  0  0  0  0  0
    8.7871  -32.8925   -3.9460 C   0  0  0  0  0  0
    7.7957  -33.3814   -3.3362 O   0  0  0  0  0  0
    9.7621  -33.8278   -4.6353 C   0  0  0  0  0  0
    9.4993  -35.2901   -4.2644 C   0  0  0  0  0  0
    8.7061  -35.9062   -5.4179 C   0  0  0  0  0  0
    8.6164  -34.8541   -6.5192 C   0  0  0  0  0  0
    9.6073  -33.7617   -6.1518 C   0  0  0  0  0  0
   14.3264  -26.3146   -3.8711 H   0  0  0  0  0  0
  1  2  1  0  0  0
  1  3  1  0  0  0
  3  4  1  0  0  0
  4  5  1  0  0  0
  5  6  1  0  0  0
  6  7  2  0  0  0
  7  8  1  0  0  0
  7  9  1  0  0  0
  9 10  1  0  0  0
 10 11  2  0  0  0
 11 12  1  0  0  0
 11 13  1  0  0  0
 13 14  2  0  0  0
 14 15  1  0  0  0
 15 16  2  0  0  0
 16 17  1  0  0  0
 16 18  1  0  0  0
 18 19  2  0  0  0
  9 20  2  0  0  0
 20 21  1  0  0  0
 21 22  1  0  0  0
 22 23  2  0  0  0
 23 24  1  0  0  0
 24 25  2  0  0  0
  4 26  1  0  0  0
 26 27  1  0  0  0
 27 28  1  0  0  0
 28 29  1  0  0  0
 29 30  2  0  0  0
 29 31  1  0  0  0
 31 32  1  0  0  0
 32 33  1  0  0  0
 33 34  1  0  0  0
 34 35  1  0  0  0
 28  1  1  0  0  0
 35 31  1  0  0  0
 25  6  1  0  0  0
 19 13  1  0  0  0
 25 21  1  0  0  0
 12 36  1  0  0  0
M  END
>  <CHROM.0>
-150.00395169,-30.55693457,-167.13308564,-52.47262090,-179.46465750,159.15697179
79.58537423,66.21959262,11.61277289

>  <CHROM.1>
71.46367951,-102.14931357,127.57186934,-1.88002685,175.55562134,173.00064850
11.76972741,-28.52416743,-2.84892015,-2.40174191,-0.41572153,0.08995905

>  <Name>

>  <RI>
1.24701e+07

>  <Rbt.Current_Directory>
/extra/banzai2/j5wagner/CELPP/2016_10_17_rdock_implementation/normal_run/tutorialVideo/tutorial_rdock_implementation/full_week_run/4-docking/5m96/hiTanimoto_5iz0_docking

>  <Rbt.Executable>
rbdock ($Id: //depot/dev/client3/rdock/2013.1/src/exe/rbdock.cxx#4 $)

>  <Rbt.Library>
libRbt.so (2013.1, Build901 2013/11/27)

>  <Rbt.Parameter_File>
/home/j5wagner/env_00/source/rDock/rDock_2013.1_src//data/scripts/dock.prm

>  <Rbt.Receptor>
/extra/banzai2/j5wagner/CELPP/2016_10_17_rdock_implementation/normal_run/tutorialVideo/tutorial_rdock_implementation/full_week_run/4-docking/5m96/hiTanimoto_5iz0_tech_prep/rDockGridGenInput.prm

>  <SCORE>
-31.075

>  <SCORE.INTER>
-19.4702

>  <SCORE.INTER.CONST>
1

>  <SCORE.INTER.POLAR>
-0.866793

>  <SCORE.INTER.REPUL>
0

>  <SCORE.INTER.ROT>
5

>  <SCORE.INTER.VDW>
-26.9231

>  <SCORE.INTER.norm>
-0.556292

>  <SCORE.INTRA>
-1.71684

>  <SCORE.INTRA.DIHEDRAL>
-3.6351

>  <SCORE.INTRA.DIHEDRAL.0>
9.74364

>  <SCORE.INTRA.POLAR>
0

>  <SCORE.INTRA.POLAR.0>
0

>  <SCORE.INTRA.REPUL>
-0.108387

>  <SCORE.INTRA.REPUL.0>
0.108387

>  <SCORE.INTRA.VDW>
0.642651

>  <SCORE.INTRA.VDW.0>
-2.87247

>  <SCORE.INTRA.norm>
-0.0490525

>  <SCORE.RESTR>
0

>  <SCORE.RESTR.CAVITY>
0

>  <SCORE.RESTR.norm>
0

>  <SCORE.SYSTEM>
-9.88794

>  <SCORE.SYSTEM.CONST>
0

>  <SCORE.SYSTEM.DIHEDRAL>
5.79021

>  <SCORE.SYSTEM.POLAR>
-3.50874

>  <SCORE.SYSTEM.REPUL>
0.135319

>  <SCORE.SYSTEM.VDW>
-1.52991

>  <SCORE.SYSTEM.norm>
-0.282513

>  <SCORE.heavy>
35

>  <SCORE.norm>
-0.887857

$$$$

  rDOCK(R)          3D
libRbt.so/2013.1/901 2013/11/27
 36 40  0  0  0  0  0  0  0  0999 V2000
    7.9178  -32.5289   -4.0405 C   0  0  0  0  0  0
    7.0111  -31.8037   -3.0383 C   0  0  0  0  0  0
    9.1954  -31.7201   -4.3282 C   0  0  0  0  0  0
   10.0917  -31.7198   -3.1525 N   0  0  0  0  0  0
   11.2649  -30.8600   -3.4114 C   0  0  0  0  0  0
   10.9931  -29.4325   -2.9747 C   0  0  0  0  0  0
   11.6804  -28.3012   -3.5088 C   0  0  0  0  0  0
   12.7702  -28.4865   -4.5397 C   0  0  0  0  0  0
   11.3112  -26.9892   -3.0900 C   0  0  0  0  0  0
   11.9886  -25.8420   -3.6328 N   0  0  0  0  0  0
   11.5473  -24.6172   -3.6431 C   0  0  0  0  0  0
   10.2669  -24.3284   -3.1630 O   0  0  0  0  0  0
   12.3977  -23.5475   -4.2210 C   0  0  0  0  0  0
   11.9206  -22.2385   -4.3885 C   0  0  0  0  0  0
   12.7203  -21.2848   -4.9320 N   0  0  0  0  0  0
   13.9938  -21.5682   -5.3126 C   0  0  0  0  0  0
   14.8353  -20.5144   -5.9513 C   0  0  0  0  0  0
   14.4806  -22.8266   -5.1596 N   0  0  0  0  0  0
   13.7175  -23.8127   -4.6222 C   0  0  0  0  0  0
   10.3322  -26.8376   -2.0888 C   0  0  0  0  0  0
    9.7318  -27.9452   -1.5976 N   0  0  0  0  0  0
    8.7808  -28.0569   -0.6608 C   0  0  0  0  0  0
    8.5031  -29.4042   -0.5221 C   0  0  0  0  0  0
    9.2772  -30.1268   -1.3663 N   0  0  0  0  0  0
   10.0138  -29.1902   -2.0028 C   0  0  0  0  0  0
   10.5104  -33.1021   -2.8371 C   0  0  0  0  0  0
    9.2900  -33.9429   -2.4624 C   0  0  0  0  0  0
    8.2839  -33.8610   -3.5303 N   0  0  0  0  0  0
    7.7708  -35.0671   -4.1328 C   0  0  0  0  0  0
    8.5181  -36.0802   -4.2271 O   0  0  0  0  0  0
    6.3303  -35.1688   -4.5970 C   0  0  0  0  0  0
    6.1948  -34.8532   -6.0892 C   0  0  0  0  0  0
    6.1102  -36.1932   -6.8217 C   0  0  0  0  0  0
    6.0622  -37.2878   -5.7600 C   0  0  0  0  0  0
    5.8004  -36.5905   -4.4351 C   0  0  0  0  0  0
    9.8629  -23.4024   -3.2106 H   0  0  0  0  0  0
  1  2  1  0  0  0
  1  3  1  0  0  0
  3  4  1  0  0  0
  4  5  1  0  0  0
  5  6  1  0  0  0
  6  7  2  0  0  0
  7  8  1  0  0  0
  7  9  1  0  0  0
  9 10  1  0  0  0
 10 11  2  0  0  0
 11 12  1  0  0  0
 11 13  1  0  0  0
 13 14  2  0  0  0
 14 15  1  0  0  0
 15 16  2  0  0  0
 16 17  1  0  0  0
 16 18  1  0  0  0
 18 19  2  0  0  0
  9 20  2  0  0  0
 20 21  1  0  0  0
 21 22  1  0  0  0
 22 23  2  0  0  0
 23 24  1  0  0  0
 24 25  2  0  0  0
  4 26  1  0  0  0
 26 27  1  0  0  0
 27 28  1  0  0  0
 28 29  1  0  0  0
 29 30  2  0  0  0
 29 31  1  0  0  0
 31 32  1  0  0  0
 32 33  1  0  0  0
 33 34  1  0  0  0
 34 35  1  0  0  0
 28  1  1  0  0  0
 35 31  1  0  0  0
 25  6  1  0  0  0
 19 13  1  0  0  0
 25 21  1  0  0  0
 12 36  1  0  0  0
M  END
>  <CHROM.0>
-151.13132302,-31.46585085,-168.58582006,-175.93086802,-172.26443809,12.66465067
-48.22320213,60.76625353,-14.85953060

>  <CHROM.1>
89.93854763,-156.19808651,159.81140427,-175.76901767,173.14722992,95.34819754
10.01592885,-29.38046597,-3.73962710,-2.63774874,1.06471148,1.01157880

>  <Name>

>  <RI>
1.24701e+07

>  <Rbt.Current_Directory>
/extra/banzai2/j5wagner/CELPP/2016_10_17_rdock_implementation/normal_run/tutorialVideo/tutorial_rdock_implementation/full_week_run/4-docking/5m96/hiTanimoto_5iz0_docking

>  <Rbt.Executable>
rbdock ($Id: //depot/dev/client3/rdock/2013.1/src/exe/rbdock.cxx#4 $)

>  <Rbt.Library>
libRbt.so (2013.1, Build901 2013/11/27)

>  <Rbt.Parameter_File>
/home/j5wagner/env_00/source/rDock/rDock_2013.1_src//data/scripts/dock.prm

>  <Rbt.Receptor>
/extra/banzai2/j5wagner/CELPP/2016_10_17_rdock_implementation/normal_run/tutorialVideo/tutorial_rdock_implementation/full_week_run/4-docking/5m96/hiTanimoto_5iz0_tech_prep/rDockGridGenInput.prm

>  <SCORE>
-22.0189

>  <SCORE.INTER>
-13.2708

>  <SCORE.INTER.CONST>
1

>  <SCORE.INTER.POLAR>
0

>  <SCORE.INTER.REPUL>
0

>  <SCORE.INTER.ROT>
5

>  <SCORE.INTER.VDW>
-23.6708

>  <SCORE.INTER.norm>
-0.379164

>  <SCORE.INTRA>
1.03347

>  <SCORE.INTRA.DIHEDRAL>
-4.31006

>  <SCORE.INTRA.DIHEDRAL.0>
9.74364

>  <SCORE.INTRA.POLAR>
0

>  <SCORE.INTRA.POLAR.0>
0

>  <SCORE.INTRA.REPUL>
0.426929

>  <SCORE.INTRA.REPUL.0>
0.108387

>  <SCORE.INTRA.VDW>
1.05385

>  <SCORE.INTRA.VDW.0>
-2.87247

>  <SCORE.INTRA.norm>
0.0295276

>  <SCORE.RESTR>
0.064203

>  <SCORE.RESTR.CAVITY>
0.064203

>  <SCORE.RESTR.norm>
0.00183437

>  <SCORE.SYSTEM>
-9.84581

>  <SCORE.SYSTEM.CONST>
0

>  <SCORE.SYSTEM.DIHEDRAL>
4.06789

>  <SCORE.SYSTEM.POLAR>
-3.62852

>  <SCORE.SYSTEM.REPUL>
0.0368813

>  <SCORE.SYSTEM.VDW>
0.27281

>  <SCORE.SYSTEM.norm>
-0.281309

>  <SCORE.heavy>
35

>  <SCORE.norm>
-0.629111

$$$$

  rDOCK(R)          3D
libRbt.so/2013.1/901 2013/11/27
 36 40  0  0  0  0  0  0  0  0999 V2000
   10.1215  -30.8841   -3.9991 C   0  0  0  0  0  0
   10.6380  -30.2891   -5.3150 C   0  0  0  0  0  0
   10.0765  -29.8243   -2.8838 C   0  0  0  0  0  0
    9.0027  -28.8404   -3.1384 N   0  0  0  0  0  0
    9.0372  -27.7777   -2.1126 C   0  0  0  0  0  0
   10.1765  -26.8112   -2.3768 C   0  0  0  0  0  0
   11.4292  -26.8651   -1.6946 C   0  0  0  0  0  0
   11.6686  -27.8989   -0.6181 C   0  0  0  0  0  0
   12.4691  -25.9592   -2.0566 C   0  0  0  0  0  0
   13.7398  -26.0148   -1.3845 N   0  0  0  0  0  0
   14.8284  -25.3939   -1.7370 C   0  0  0  0  0  0
   14.8572  -24.6411   -2.9142 O   0  0  0  0  0  0
   16.0473  -25.5428   -0.9043 C   0  0  0  0  0  0
   15.9772  -25.6207    0.4950 C   0  0  0  0  0  0
   17.1127  -25.7445    1.2297 N   0  0  0  0  0  0
   18.3324  -25.8075    0.6335 C   0  0  0  0  0  0
   19.5677  -25.8952    1.4659 C   0  0  0  0  0  0
   18.4279  -25.7364   -0.7191 N   0  0  0  0  0  0
   17.3203  -25.6111   -1.4943 C   0  0  0  0  0  0
   12.2109  -24.9674   -3.0227 C   0  0  0  0  0  0
   10.9971  -24.9445   -3.6184 N   0  0  0  0  0  0
   10.5222  -24.1158   -4.5577 C   0  0  0  0  0  0
    9.2280  -24.5153   -4.8356 C   0  0  0  0  0  0
    8.8989  -25.5852   -4.0733 N   0  0  0  0  0  0
   10.0131  -25.8105   -3.3434 C   0  0  0  0  0  0
    7.6893  -29.5191   -3.1506 C   0  0  0  0  0  0
    7.6386  -30.5342   -4.2923 C   0  0  0  0  0  0
    8.7778  -31.4566   -4.1875 N   0  0  0  0  0  0
    8.5523  -32.8810   -4.1501 C   0  0  0  0  0  0
    7.4967  -33.3285   -3.6217 O   0  0  0  0  0  0
    9.5242  -33.8531   -4.7912 C   0  0  0  0  0  0
    9.0856  -35.3061   -4.5878 C   0  0  0  0  0  0
    8.4029  -35.7503   -5.8824 C   0  0  0  0  0  0
    8.5552  -34.6133   -6.8882 C   0  0  0  0  0  0
    9.5807  -33.6561   -6.3031 C   0  0  0  0  0  0
   15.6672  -24.1074   -3.2004 H   0  0  0  0  0  0
  1  2  1  0  0  0
  1  3  1  0  0  0
  3  4  1  0  0  0
  4  5  1  0  0  0
  5  6  1  0  0  0
  6  7  2  0  0  0
  7  8  1  0  0  0
  7  9  1  0  0  0
  9 10  1  0  0  0
 10 11  2  0  0  0
 11 12  1  0  0  0
 11 13  1  0  0  0
 13 14  2  0  0  0
 14 15  1  0  0  0
 15 16  2  0  0  0
 16 17  1  0  0  0
 16 18  1  0  0  0
 18 19  2  0  0  0
  9 20  2  0  0  0
 20 21  1  0  0  0
 21 22  1  0  0  0
 22 23  2  0  0  0
 23 24  1  0  0  0
 24 25  2  0  0  0
  4 26  1  0  0  0
 26 27  1  0  0  0
 27 28  1  0  0  0
 28 29  1  0  0  0
 29 30  2  0  0  0
 29 31  1  0  0  0
 31 32  1  0  0  0
 32 33  1  0  0  0
 33 34  1  0  0  0
 34 35  1  0  0  0
 28  1  1  0  0  0
 35 31  1  0  0  0
 25  6  1  0  0  0
 19 13  1  0  0  0
 25 21  1  0  0  0
 12 36  1  0  0  0
M  END
>  <CHROM.0>
-150.51350688,1.73811835,-164.77242451,59.59264394,43.96328817,149.20064669
76.78026334,-60.57918656,5.40990531

>  <CHROM.1>
75.97564262,-99.54947877,169.23062862,176.92519733,-37.04707362,178.55640643
11.63274562,-28.40567802,-2.90319866,-2.38903928,-0.42731396,0.09848296

>  <Name>

>  <RI>
1.24701e+07

>  <Rbt.Current_Directory>
/extra/banzai2/j5wagner/CELPP/2016_10_17_rdock_implementation/normal_run/tutorialVideo/tutorial_rdock_implementation/full_week_run/4-docking/5m96/hiTanimoto_5iz0_docking

>  <Rbt.Executable>
rbdock ($Id: //depot/dev/client3/rdock/2013.1/src/exe/rbdock.cxx#4 $)

>  <Rbt.Library>
libRbt.so (2013.1, Build901 2013/11/27)

>  <Rbt.Parameter_File>
/home/j5wagner/env_00/source/rDock/rDock_2013.1_src//data/scripts/dock.prm

>  <Rbt.Receptor>
/extra/banzai2/j5wagner/CELPP/2016_10_17_rdock_implementation/normal_run/tutorialVideo/tutorial_rdock_implementation/full_week_run/4-docking/5m96/hiTanimoto_5iz0_tech_prep/rDockGridGenInput.prm

>  <SCORE>
-32.2042

>  <SCORE.INTER>
-19.1521

>  <SCORE.INTER.CONST>
1

>  <SCORE.INTER.POLAR>
-0.91938

>  <SCORE.INTER.REPUL>
0

>  <SCORE.INTER.ROT>
5

>  <SCORE.INTER.VDW>
-26.4262

>  <SCORE.INTER.norm>
-0.547202

>  <SCORE.INTRA>
-0.727813

>  <SCORE.INTRA.DIHEDRAL>
-3.12766

>  <SCORE.INTRA.DIHEDRAL.0>
9.74364

>  <SCORE.INTRA.POLAR>
0

>  <SCORE.INTRA.POLAR.0>
0

>  <SCORE.INTRA.REPUL>
-0.108387

>  <SCORE.INTRA.REPUL.0>
0.108387

>  <SCORE.INTRA.VDW>
1.37796

>  <SCORE.INTRA.VDW.0>
-2.87247

>  <SCORE.INTRA.norm>
-0.0207947

>  <SCORE.RESTR>
0

>  <SCORE.RESTR.CAVITY>
0

>  <SCORE.RESTR.norm>
0

>  <SCORE.SYSTEM>
-12.3243

>  <SCORE.SYSTEM.CONST>
0

>  <SCORE.SYSTEM.DIHEDRAL>
6.66144

>  <SCORE.SYSTEM.POLAR>
-4.20408

>  <SCORE.SYSTEM.REPUL>
0.0675945

>  <SCORE.SYSTEM.VDW>
-1.69913

>  <SCORE.SYSTEM.norm>
-0.352124

>  <SCORE.heavy>
35

>  <SCORE.norm>
-0.92012

$$$$

  rDOCK(R)          3D
libRbt.so/2013.1/901 2013/11/27
 36 40  0  0  0  0  0  0  0  0999 V2000
   10.0861  -30.7970   -3.4992 C   0  0  0  0  0  0
   10.2233  -30.2834   -4.9379 C   0  0  0  0  0  0
   10.1475  -29.6423   -2.4833 C   0  0  0  0  0  0
    8.9261  -28.8126   -2.5579 N   0  0  0  0  0  0
    9.0446  -27.6554   -1.6472 C   0  0  0  0  0  0
   10.2011  -26.7632   -2.0580 C   0  0  0  0  0  0
   11.4628  -26.7520   -1.3905 C   0  0  0  0  0  0
   11.6957  -27.6311   -0.1831 C   0  0  0  0  0  0
   12.5170  -25.9311   -1.8883 C   0  0  0  0  0  0
   13.7965  -25.9235   -1.2308 N   0  0  0  0  0  0
   14.9625  -25.9640   -1.8085 C   0  0  0  0  0  0
   15.0539  -26.1033   -3.1961 O   0  0  0  0  0  0
   16.1861  -25.9170   -0.9706 C   0  0  0  0  0  0
   17.4680  -25.9996   -1.5355 C   0  0  0  0  0  0
   18.5681  -25.9659   -0.7399 N   0  0  0  0  0  0
   18.4568  -25.8407    0.6088 C   0  0  0  0  0  0
   19.6793  -25.8545    1.4643 C   0  0  0  0  0  0
   17.2280  -25.7568    1.1806 N   0  0  0  0  0  0
   16.1001  -25.7874    0.4255 C   0  0  0  0  0  0
   12.2660  -25.0778   -2.9804 C   0  0  0  0  0  0
   11.0439  -25.1086   -3.5584 N   0  0  0  0  0  0
   10.5731  -24.4077   -4.5984 C   0  0  0  0  0  0
    9.2661  -24.8103   -4.8018 C   0  0  0  0  0  0
    8.9250  -25.7550   -3.8933 N   0  0  0  0  0  0
   10.0451  -25.9034   -3.1529 C   0  0  0  0  0  0
    7.7404  -29.6291   -2.2215 C   0  0  0  0  0  0
    7.5748  -30.7527   -3.2446 C   0  0  0  0  0  0
    8.8190  -31.5293   -3.3347 N   0  0  0  0  0  0
    8.7930  -32.9590   -3.1432 C   0  0  0  0  0  0
    7.9442  -33.4645   -2.3573 O   0  0  0  0  0  0
    9.7201  -33.8778   -3.9159 C   0  0  0  0  0  0
   11.1897  -33.6089   -3.5801 C   0  0  0  0  0  0
   11.6181  -34.6759   -2.5715 C   0  0  0  0  0  0
   10.4509  -35.6458   -2.4144 C   0  0  0  0  0  0
    9.4813  -35.3380   -3.5437 C   0  0  0  0  0  0
   14.2397  -26.1824   -3.7909 H   0  0  0  0  0  0
  1  2  1  0  0  0
  1  3  1  0  0  0
  3  4  1  0  0  0
  4  5  1  0  0  0
  5  6  1  0  0  0
  6  7  2  0  0  0
  7  8  1  0  0  0
  7  9  1  0  0  0
  9 10  1  0  0  0
 10 11  2  0  0  0
 11 12  1  0  0  0
 11 13  1  0  0  0
 13 14  2  0  0  0
 14 15  1  0  0  0
 15 16  2  0  0  0
 16 17  1  0  0  0
 16 18  1  0  0  0
 18 19  2  0  0  0
  9 20  2  0  0  0
 20 21  1  0  0  0
 21 22  1  0  0  0
 22 23  2  0  0  0
 23 24  1  0  0  0
 24 25  2  0  0  0
  4 26  1  0  0  0
 26 27  1  0  0  0
 27 28  1  0  0  0
 28 29  1  0  0  0
 29 30  2  0  0  0
 29 31  1  0  0  0
 31 32  1  0  0  0
 32 33  1  0  0  0
 33 34  1  0  0  0
 34 35  1  0  0  0
 28  1  1  0  0  0
 35 31  1  0  0  0
 25  6  1  0  0  0
 19 13  1  0  0  0
 25 21  1  0  0  0
 12 36  1  0  0  0
M  END
>  <CHROM.0>
-151.02722367,-28.41238975,73.02353179,54.29140581,-177.15008470,11.35342832
77.38330513,69.67854675,-14.50608162

>  <CHROM.1>
62.36635361,-102.55971634,136.09469419,-0.40693794,177.96947423,63.46280422
11.90011824,-28.52531993,-2.28778846,-2.42742124,-0.38625189,-0.05731709

>  <Name>

>  <RI>
1.24701e+07

>  <Rbt.Current_Directory>
/extra/banzai2/j5wagner/CELPP/2016_10_17_rdock_implementation/normal_run/tutorialVideo/tutorial_rdock_implementation/full_week_run/4-docking/5m96/hiTanimoto_5iz0_docking

>  <Rbt.Executable>
rbdock ($Id: //depot/dev/client3/rdock/2013.1/src/exe/rbdock.cxx#4 $)

>  <Rbt.Library>
libRbt.so (2013.1, Build901 2013/11/27)

>  <Rbt.Parameter_File>
/home/j5wagner/env_00/source/rDock/rDock_2013.1_src//data/scripts/dock.prm

>  <Rbt.Receptor>
/extra/banzai2/j5wagner/CELPP/2016_10_17_rdock_implementation/normal_run/tutorialVideo/tutorial_rdock_implementation/full_week_run/4-docking/5m96/hiTanimoto_5iz0_tech_prep/rDockGridGenInput.prm

>  <SCORE>
-38.2186

>  <SCORE.INTER>
-20.3336

>  <SCORE.INTER.CONST>
1

>  <SCORE.INTER.POLAR>
-0.87775

>  <SCORE.INTER.REPUL>
0

>  <SCORE.INTER.ROT>
5

>  <SCORE.INTER.VDW>
-27.7493

>  <SCORE.INTER.norm>
-0.580961

>  <SCORE.INTRA>
-0.948569

>  <SCORE.INTRA.DIHEDRAL>
-5.11728

>  <SCORE.INTRA.DIHEDRAL.0>
9.74364

>  <SCORE.INTRA.POLAR>
0

>  <SCORE.INTRA.POLAR.0>
0

>  <SCORE.INTRA.REPUL>
-0.108387

>  <SCORE.INTRA.REPUL.0>
0.108387

>  <SCORE.INTRA.VDW>
2.15201

>  <SCORE.INTRA.VDW.0>
-2.87247

>  <SCORE.INTRA.norm>
-0.027102

>  <SCORE.RESTR>
0

>  <SCORE.RESTR.CAVITY>
0

>  <SCORE.RESTR.norm>
0

>  <SCORE.SYSTEM>
-16.9364

>  <SCORE.SYSTEM.CONST>
0

>  <SCORE.SYSTEM.DIHEDRAL>
5.06421

>  <SCORE.SYSTEM.POLAR>
-5.07086

>  <SCORE.SYSTEM.VDW>
-2.22762

>  <SCORE.SYSTEM.norm>
-0.483898

>  <SCORE.heavy>
35

>  <SCORE.norm>
-1.09196

$$$$

  rDOCK(R)          3D
libRbt.so/2013.1/901 2013/11/27
 36 40  0  0  0  0  0  0  0  0999 V2000
    9.8910  -31.6771   -4.5326 C   0  0  0  0  0  0
    9.8358  -30.8629   -5.8313 C   0  0  0  0  0  0
   10.0287  -30.7622   -3.3025 C   0  0  0  0  0  0
    8.7760  -30.0146   -3.0622 N   0  0  0  0  0  0
    8.9577  -29.0712   -1.9398 C   0  0  0  0  0  0
    9.8957  -27.9443   -2.3301 C   0  0  0  0  0  0
    9.7938  -27.2247   -3.5587 C   0  0  0  0  0  0
    8.7347  -27.5915   -4.5729 C   0  0  0  0  0  0
   10.6757  -26.1334   -3.8122 C   0  0  0  0  0  0
   10.5717  -25.3931   -5.0413 N   0  0  0  0  0  0
    9.6809  -24.4871   -5.3249 C   0  0  0  0  0  0
    8.6511  -24.2086   -4.4220 O   0  0  0  0  0  0
    9.7427  -23.7988   -6.6378 C   0  0  0  0  0  0
    8.7050  -22.9643   -7.0804 C   0  0  0  0  0  0
    8.7863  -22.3582   -8.2930 N   0  0  0  0  0  0
    9.8693  -22.5334   -9.0953 C   0  0  0  0  0  0
    9.9123  -21.8945  -10.4431 C   0  0  0  0  0  0
   10.8882  -23.3342   -8.6899 N   0  0  0  0  0  0
   10.8502  -23.9616   -7.4864 C   0  0  0  0  0  0
   11.6914  -25.8403   -2.8815 C   0  0  0  0  0  0
   11.7596  -26.5717   -1.7461 N   0  0  0  0  0  0
   12.6180  -26.4805   -0.7217 C   0  0  0  0  0  0
   12.2608  -27.4513    0.1956 C   0  0  0  0  0  0
   11.1876  -28.1433   -0.2553 N   0  0  0  0  0  0
   10.9175  -27.5697   -1.4482 C   0  0  0  0  0  0
    7.6713  -30.9572   -2.7853 C   0  0  0  0  0  0
    7.4283  -31.8468   -4.0043 C   0  0  0  0  0  0
    8.6818  -32.5065   -4.3953 N   0  0  0  0  0  0
    8.7340  -33.9429   -4.5178 C   0  0  0  0  0  0
    8.0051  -34.6561   -3.7737 O   0  0  0  0  0  0
    9.5969  -34.6167   -5.5677 C   0  0  0  0  0  0
    9.3379  -36.1247   -5.6279 C   0  0  0  0  0  0
    8.4006  -36.3684   -6.8117 C   0  0  0  0  0  0
    8.2142  -35.0325   -7.5247 C   0  0  0  0  0  0
    9.2708  -34.0948   -6.9638 C   0  0  0  0  0  0
    8.5860  -24.6523   -3.5155 H   0  0  0  0  0  0
  1  2  1  0  0  0
  1  3  1  0  0  0
  3  4  1  0  0  0
  4  5  1  0  0  0
  5  6  1  0  0  0
  6  7  2  0  0  0
  7  8  1  0  0  0
  7  9  1  0  0  0
  9 10  1  0  0  0
 10 11  2  0  0  0
 11 12  1  0  0  0
 11 13  1  0  0  0
 13 14  2  0  0  0
 14 15  1  0  0  0
 15 16  2  0  0  0
 16 17  1  0  0  0
 16 18  1  0  0  0
 18 19  2  0  0  0
  9 20  2  0  0  0
 20 21  1  0  0  0
 21 22  1  0  0  0
 22 23  2  0  0  0
 23 24  1  0  0  0
 24 25  2  0  0  0
  4 26  1  0  0  0
 26 27  1  0  0  0
 27 28  1  0  0  0
 28 29  1  0  0  0
 29 30  2  0  0  0
 29 31  1  0  0  0
 31 32  1  0  0  0
 32 33  1  0  0  0
 33 34  1  0  0  0
 34 35  1  0  0  0
 28  1  1  0  0  0
 35 31  1  0  0  0
 25  6  1  0  0  0
 19 13  1  0  0  0
 25 21  1  0  0  0
 12 36  1  0  0  0
M  END
>  <CHROM.0>
-150.28376781,-30.10896198,-167.33817771,60.06362692,165.99932631,10.70736178
171.22878774,169.08986738,-110.04483006

>  <CHROM.1>
69.23968009,46.52114968,77.62168966,3.25903960,170.36573514,-172.10769757
9.67664601,-28.59093263,-4.71447913,2.00948754,1.28340687,2.57008633

>  <Name>

>  <RI>
1.24701e+07

>  <Rbt.Current_Directory>
/extra/banzai2/j5wagner/CELPP/2016_10_17_rdock_implementation/normal_run/tutorialVideo/tutorial_rdock_implementation/full_week_run/4-docking/5m96/hiTanimoto_5iz0_docking

>  <Rbt.Executable>
rbdock ($Id: //depot/dev/client3/rdock/2013.1/src/exe/rbdock.cxx#4 $)

>  <Rbt.Library>
libRbt.so (2013.1, Build901 2013/11/27)

>  <Rbt.Parameter_File>
/home/j5wagner/env_00/source/rDock/rDock_2013.1_src//data/scripts/dock.prm

>  <Rbt.Receptor>
/extra/banzai2/j5wagner/CELPP/2016_10_17_rdock_implementation/normal_run/tutorialVideo/tutorial_rdock_implementation/full_week_run/4-docking/5m96/hiTanimoto_5iz0_tech_prep/rDockGridGenInput.prm

>  <SCORE>
-32.7734

>  <SCORE.INTER>
-18.6877

>  <SCORE.INTER.CONST>
1

>  <SCORE.INTER.POLAR>
-0.959166

>  <SCORE.INTER.REPUL>
0

>  <SCORE.INTER.ROT>
5

>  <SCORE.INTER.VDW>
-25.8265

>  <SCORE.INTER.norm>
-0.533934

>  <SCORE.INTRA>
-0.535458

>  <SCORE.INTRA.DIHEDRAL>
-1.91254

>  <SCORE.INTRA.DIHEDRAL.0>
9.74364

>  <SCORE.INTRA.POLAR>
0

>  <SCORE.INTRA.POLAR.0>
0

>  <SCORE.INTRA.REPUL>
-0.108387

>  <SCORE.INTRA.REPUL.0>
0.108387

>  <SCORE.INTRA.VDW>
0.962748

>  <SCORE.INTRA.VDW.0>
-2.87247

>  <SCORE.INTRA.norm>
-0.0152988

>  <SCORE.RESTR>
0

>  <SCORE.RESTR.CAVITY>
0

>  <SCORE.RESTR.norm>
0

>  <SCORE.SYSTEM>
-13.5503

>  <SCORE.SYSTEM.CONST>
0

>  <SCORE.SYSTEM.DIHEDRAL>
8.33406

>  <SCORE.SYSTEM.POLAR>
-4.44222

>  <SCORE.SYSTEM.REPUL>
0.0282269

>  <SCORE.SYSTEM.VDW>
-2.7549

>  <SCORE.SYSTEM.norm>
-0.387151

>  <SCORE.heavy>
35

>  <SCORE.norm>
-0.936384

$$$$

  rDOCK(R)          3D
libRbt.so/2013.1/901 2013/11/27
 36 40  0  0  0  0  0  0  0  0999 V2000
    9.1614  -31.1856   -3.1751 C   0  0  0  0  0  0
    9.6570  -30.7587   -4.5625 C   0  0  0  0  0  0
    9.4394  -30.0987   -2.1213 C   0  0  0  0  0  0
    8.5664  -28.9249   -2.3357 N   0  0  0  0  0  0
    8.9137  -27.8550   -1.3780 C   0  0  0  0  0  0
   10.0766  -27.0278   -1.8934 C   0  0  0  0  0  0
   11.3422  -26.9539   -1.2376 C   0  0  0  0  0  0
   11.5735  -27.6921    0.0611 C   0  0  0  0  0  0
   12.4016  -26.2063   -1.8308 C   0  0  0  0  0  0
   13.6850  -26.1374   -1.1845 N   0  0  0  0  0  0
   14.8477  -26.2097   -1.7656 C   0  0  0  0  0  0
   14.9320  -26.4514   -3.1396 O   0  0  0  0  0  0
   16.0760  -26.0885   -0.9421 C   0  0  0  0  0  0
   17.3553  -26.1820   -1.5111 C   0  0  0  0  0  0
   18.4600  -26.0790   -0.7279 N   0  0  0  0  0  0
   18.3556  -25.8730    0.6114 C   0  0  0  0  0  0
   19.5840  -25.8115    1.4563 C   0  0  0  0  0  0
   17.1294  -25.7769    1.1868 N   0  0  0  0  0  0
   15.9971  -25.8748    0.4440 C   0  0  0  0  0  0
   12.1527  -25.4805   -3.0119 C   0  0  0  0  0  0
   10.9269  -25.5640   -3.5768 N   0  0  0  0  0  0
   10.4570  -24.9813   -4.6877 C   0  0  0  0  0  0
    9.1448  -25.3906   -4.8375 C   0  0  0  0  0  0
    8.7997  -26.2219   -3.8257 N   0  0  0  0  0  0
    9.9226  -26.2968   -3.0785 C   0  0  0  0  0  0
    7.1483  -29.3186   -2.1950 C   0  0  0  0  0  0
    6.7835  -30.3430   -3.2693 C   0  0  0  0  0  0
    7.7180  -31.4757   -3.2130 N   0  0  0  0  0  0
    7.2147  -32.8207   -3.0763 C   0  0  0  0  0  0
    6.1470  -33.0214   -2.4334 O   0  0  0  0  0  0
    7.9039  -33.9952   -3.7445 C   0  0  0  0  0  0
    7.2135  -35.3201   -3.4085 C   0  0  0  0  0  0
    6.3235  -35.6731   -4.6012 C   0  0  0  0  0  0
    6.5876  -34.6344   -5.6870 C   0  0  0  0  0  0
    7.8369  -33.8788   -5.2643 C   0  0  0  0  0  0
   15.8149  -26.5147   -3.6288 H   0  0  0  0  0  0
  1  2  1  0  0  0
  1  3  1  0  0  0
  3  4  1  0  0  0
  4  5  1  0  0  0
  5  6  1  0  0  0
  6  7  2  0  0  0
  7  8  1  0  0  0
  7  9  1  0  0  0
  9 10  1  0  0  0
 10 11  2  0  0  0
 11 12  1  0  0  0
 11 13  1  0  0  0
 13 14  2  0  0  0
 14 15  1  0  0  0
 15 16  2  0  0  0
 16 17  1  0  0  0
 16 18  1  0  0  0
 18 19  2  0  0  0
  9 20  2  0  0  0
 20 21  1  0  0  0
 21 22  1  0  0  0
 22 23  2  0  0  0
 23 24  1  0  0  0
 24 25  2  0  0  0
  4 26  1  0  0  0
 26 27  1  0  0  0
 27 28  1  0  0  0
 28 29  1  0  0  0
 29 30  2  0  0  0
 29 31  1  0  0  0
 31 32  1  0  0  0
 32 33  1  0  0  0
 33 34  1  0  0  0
 34 35  1  0  0  0
 28  1  1  0  0  0
 35 31  1  0  0  0
 25  6  1  0  0  0
 19 13  1  0  0  0
 25 21  1  0  0  0
 12 36  1  0  0  0
M  END
>  <CHROM.0>
-150.73913276,1.69587957,-47.54248641,53.66652746,29.70847360,152.11243881
77.50808373,63.64323610,-4.63963103

>  <CHROM.1>
83.99709441,-116.50589901,138.63925010,179.99398807,178.87928732,177.85544892
11.10235276,-28.68303261,-2.41332967,-2.54504784,-0.39676392,-0.08313508

>  <Name>

>  <RI>
1.24701e+07

>  <Rbt.Current_Directory>
/extra/banzai2/j5wagner/CELPP/2016_10_17_rdock_implementation/normal_run/tutorialVideo/tutorial_rdock_implementation/full_week_run/4-docking/5m96/hiTanimoto_5iz0_docking

>  <Rbt.Executable>
rbdock ($Id: //depot/dev/client3/rdock/2013.1/src/exe/rbdock.cxx#4 $)

>  <Rbt.Library>
libRbt.so (2013.1, Build901 2013/11/27)

>  <Rbt.Parameter_File>
/home/j5wagner/env_00/source/rDock/rDock_2013.1_src//data/scripts/dock.prm

>  <Rbt.Receptor>
/extra/banzai2/j5wagner/CELPP/2016_10_17_rdock_implementation/normal_run/tutorialVideo/tutorial_rdock_implementation/full_week_run/4-docking/5m96/hiTanimoto_5iz0_tech_prep/rDockGridGenInput.prm

>  <SCORE>
-35.0026

>  <SCORE.INTER>
-20.3229

>  <SCORE.INTER.CONST>
1

>  <SCORE.INTER.POLAR>
-1.245

>  <SCORE.INTER.REPUL>
0

>  <SCORE.INTER.ROT>
5

>  <SCORE.INTER.VDW>
-26.4899

>  <SCORE.INTER.norm>
-0.580654

>  <SCORE.INTRA>
-2.16223

>  <SCORE.INTRA.DIHEDRAL>
-4.48174

>  <SCORE.INTRA.DIHEDRAL.0>
9.74364

>  <SCORE.INTRA.POLAR>
0

>  <SCORE.INTRA.POLAR.0>
0

>  <SCORE.INTRA.REPUL>
-0.0536745

>  <SCORE.INTRA.REPUL.0>
0.108387

>  <SCORE.INTRA.VDW>
0.347012

>  <SCORE.INTRA.VDW.0>
-2.87247

>  <SCORE.INTRA.norm>
-0.061778

>  <SCORE.RESTR>
0

>  <SCORE.RESTR.CAVITY>
0

>  <SCORE.RESTR.norm>
0

>  <SCORE.SYSTEM>
-12.5174

>  <SCORE.SYSTEM.CONST>
0

>  <SCORE.SYSTEM.DIHEDRAL>
5.47701

>  <SCORE.SYSTEM.POLAR>
-4.25758

>  <SCORE.SYSTEM.REPUL>
0.0786032

>  <SCORE.SYSTEM.VDW>
-1.17318

>  <SCORE.SYSTEM.norm>
-0.357641

>  <SCORE.heavy>
35

>  <SCORE.norm>
-1.00007

$$$$

  rDOCK(R)          3D
libRbt.so/2013.1/901 2013/11/27
 36 40  0  0  0  0  0  0  0  0999 V2000
    9.6080  -30.6253   -4.0326 C   0  0  0  0  0  0
    9.5461  -30.3128   -5.5330 C   0  0  0  0  0  0
    9.6401  -29.3363   -3.1921 C   0  0  0  0  0  0
    8.3329  -28.6472   -3.2386 N   0  0  0  0  0  0
    8.4110  -27.3653   -2.5084 C   0  0  0  0  0  0
    9.6067  -26.5540   -2.9712 C   0  0  0  0  0  0
   10.8744  -26.5755   -2.3154 C   0  0  0  0  0  0
   11.0753  -27.4067   -1.0689 C   0  0  0  0  0  0
   11.9635  -25.8343   -2.8609 C   0  0  0  0  0  0
   13.2486  -25.8607   -2.2150 N   0  0  0  0  0  0
   13.5229  -25.4193   -1.0214 C   0  0  0  0  0  0
   12.5369  -24.7783   -0.2663 O   0  0  0  0  0  0
   14.9054  -25.5560   -0.5003 C   0  0  0  0  0  0
   15.2361  -25.1886    0.8130 C   0  0  0  0  0  0
   16.5137  -25.3146    1.2560 N   0  0  0  0  0  0
   17.4920  -25.8058    0.4504 C   0  0  0  0  0  0
   18.8970  -25.8891    0.9460 C   0  0  0  0  0  0
   17.1981  -26.1705   -0.8241 N   0  0  0  0  0  0
   15.9353  -26.0613   -1.3109 C   0  0  0  0  0  0
   11.7444  -25.0223   -3.9907 C   0  0  0  0  0  0
   10.5163  -25.0182   -4.5565 N   0  0  0  0  0  0
   10.0705  -24.3445   -5.6252 C   0  0  0  0  0  0
    8.7427  -24.6891   -5.7982 C   0  0  0  0  0  0
    8.3639  -25.5707   -4.8425 N   0  0  0  0  0  0
    9.4828  -25.7407   -4.1050 C   0  0  0  0  0  0
    7.2836  -29.5171   -2.6660 C   0  0  0  0  0  0
    7.1443  -30.7866   -3.5060 C   0  0  0  0  0  0
    8.4521  -31.4449   -3.6313 N   0  0  0  0  0  0
    8.6035  -32.8281   -3.2503 C   0  0  0  0  0  0
    7.8968  -33.2948   -2.3141 O   0  0  0  0  0  0
    9.5466  -33.7548   -3.9936 C   0  0  0  0  0  0
   11.0056  -33.3153   -3.8418 C   0  0  0  0  0  0
   11.6261  -34.1983   -2.7581 C   0  0  0  0  0  0
   10.5806  -35.2385   -2.3674 C   0  0  0  0  0  0
    9.4894  -35.1689   -3.4233 C   0  0  0  0  0  0
   11.5984  -24.6265   -0.6115 H   0  0  0  0  0  0
  1  2  1  0  0  0
  1  3  1  0  0  0
  3  4  1  0  0  0
  4  5  1  0  0  0
  5  6  1  0  0  0
  6  7  2  0  0  0
  7  8  1  0  0  0
  7  9  1  0  0  0
  9 10  1  0  0  0
 10 11  2  0  0  0
 11 12  1  0  0  0
 11 13  1  0  0  0
 13 14  2  0  0  0
 14 15  1  0  0  0
 15 16  2  0  0  0
 16 17  1  0  0  0
 16 18  1  0  0  0
 18 19  2  0  0  0
  9 20  2  0  0  0
 20 21  1  0  0  0
 21 22  1  0  0  0
 22 23  2  0  0  0
 23 24  1  0  0  0
 24 25  2  0  0  0
  4 26  1  0  0  0
 26 27  1  0  0  0
 27 28  1  0  0  0
 28 29  1  0  0  0
 29 30  2  0  0  0
 29 31  1  0  0  0
 31 32  1  0  0  0
 32 33  1  0  0  0
 33 34  1  0  0  0
 34 35  1  0  0  0
 28  1  1  0  0  0
 35 31  1  0  0  0
 25  6  1  0  0  0
 19 13  1  0  0  0
 25 21  1  0  0  0
 12 36  1  0  0  0
M  END
>  <CHROM.0>
-151.18875184,-30.95011433,72.68925377,59.23353571,-25.95164868,16.33520364
-46.42829783,169.78537301,-13.76595400

>  <CHROM.1>
50.44322857,-94.79496649,-63.47623105,-0.68081422,-175.25174210,64.51702519
11.26198303,-28.31005351,-2.58801215,-2.40476798,-0.51577921,-0.10005889

>  <Name>

>  <RI>
1.24701e+07

>  <Rbt.Current_Directory>
/extra/banzai2/j5wagner/CELPP/2016_10_17_rdock_implementation/normal_run/tutorialVideo/tutorial_rdock_implementation/full_week_run/4-docking/5m96/hiTanimoto_5iz0_docking

>  <Rbt.Executable>
rbdock ($Id: //depot/dev/client3/rdock/2013.1/src/exe/rbdock.cxx#4 $)

>  <Rbt.Library>
libRbt.so (2013.1, Build901 2013/11/27)

>  <Rbt.Parameter_File>
/home/j5wagner/env_00/source/rDock/rDock_2013.1_src//data/scripts/dock.prm

>  <Rbt.Receptor>
/extra/banzai2/j5wagner/CELPP/2016_10_17_rdock_implementation/normal_run/tutorialVideo/tutorial_rdock_implementation/full_week_run/4-docking/5m96/hiTanimoto_5iz0_tech_prep/rDockGridGenInput.prm

>  <SCORE>
-34.2005

>  <SCORE.INTER>
-21.4294

>  <SCORE.INTER.CONST>
1

>  <SCORE.INTER.POLAR>
-1.27213

>  <SCORE.INTER.REPUL>
0

>  <SCORE.INTER.ROT>
5

>  <SCORE.INTER.VDW>
-27.5042

>  <SCORE.INTER.norm>
-0.612269

>  <SCORE.INTRA>
0.705357

>  <SCORE.INTRA.DIHEDRAL>
-2.86702

>  <SCORE.INTRA.DIHEDRAL.0>
9.74364

>  <SCORE.INTRA.POLAR>
0

>  <SCORE.INTRA.POLAR.0>
0

>  <SCORE.INTRA.REPUL>
-0.108387

>  <SCORE.INTRA.REPUL.0>
0.108387

>  <SCORE.INTRA.VDW>
2.6808

>  <SCORE.INTRA.VDW.0>
-2.87247

>  <SCORE.INTRA.norm>
0.0201531

>  <SCORE.RESTR>
0

>  <SCORE.RESTR.CAVITY>
0

>  <SCORE.RESTR.norm>
0

>  <SCORE.SYSTEM>
-13.4764

>  <SCORE.SYSTEM.CONST>
0

>  <SCORE.SYSTEM.DIHEDRAL>
5.63164

>  <SCORE.SYSTEM.POLAR>
-4.43649

>  <SCORE.SYSTEM.VDW>
-1.2082

>  <SCORE.SYSTEM.norm>
-0.385041

>  <SCORE.heavy>
35

>  <SCORE.norm>
-0.977157

$$$$

  rDOCK(R)          3D
libRbt.so/2013.1/901 2013/11/27
 36 40  0  0  0  0  0  0  0  0999 V2000
    9.6413  -31.7921   -4.3798 C   0  0  0  0  0  0
    9.8272  -31.0416   -5.7045 C   0  0  0  0  0  0
    9.7078  -30.8331   -3.1777 C   0  0  0  0  0  0
    8.5106  -29.9668   -3.1312 N   0  0  0  0  0  0
    8.6369  -28.9887   -2.0311 C   0  0  0  0  0  0
    9.6492  -27.9138   -2.3800 C   0  0  0  0  0  0
    9.6452  -27.1994   -3.6158 C   0  0  0  0  0  0
    8.6203  -27.5199   -4.6797 C   0  0  0  0  0  0
   10.5931  -26.1562   -3.8307 C   0  0  0  0  0  0
   10.5880  -25.4211   -5.0673 N   0  0  0  0  0  0
    9.9681  -24.2996   -5.2972 C   0  0  0  0  0  0
    9.1494  -23.7360   -4.3147 O   0  0  0  0  0  0
   10.0986  -23.6619   -6.6305 C   0  0  0  0  0  0
    9.2702  -22.5990   -7.0217 C   0  0  0  0  0  0
    9.4069  -22.0448   -8.2540 N   0  0  0  0  0  0
   10.3478  -22.4931   -9.1262 C   0  0  0  0  0  0
   10.4452  -21.8989  -10.4915 C   0  0  0  0  0  0
   11.1636  -23.5191   -8.7716 N   0  0  0  0  0  0
   11.0628  -24.1050   -7.5509 C   0  0  0  0  0  0
   11.5750  -25.9078   -2.8520 C   0  0  0  0  0  0
   11.5495  -26.6329   -1.7108 N   0  0  0  0  0  0
   12.3596  -26.5774   -0.6454 C   0  0  0  0  0  0
   11.9084  -27.5218    0.2580 C   0  0  0  0  0  0
   10.8249  -28.1620   -0.2423 N   0  0  0  0  0  0
   10.6439  -27.5846   -1.4501 C   0  0  0  0  0  0
    7.2961  -30.7933   -2.9651 C   0  0  0  0  0  0
    7.1266  -31.7174   -4.1709 C   0  0  0  0  0  0
    8.3520  -32.5036   -4.3700 N   0  0  0  0  0  0
    8.2841  -33.9434   -4.4303 C   0  0  0  0  0  0
    7.4033  -34.5517   -3.7610 O   0  0  0  0  0  0
    9.2055  -34.7419   -5.3325 C   0  0  0  0  0  0
    8.9353  -36.2455   -5.2263 C   0  0  0  0  0  0
    8.0734  -36.6289   -6.4302 C   0  0  0  0  0  0
    7.9470  -35.3891   -7.3104 C   0  0  0  0  0  0
    8.9751  -34.3928   -6.7998 C   0  0  0  0  0  0
    8.8049  -22.7867   -4.3709 H   0  0  0  0  0  0
  1  2  1  0  0  0
  1  3  1  0  0  0
  3  4  1  0  0  0
  4  5  1  0  0  0
  5  6  1  0  0  0
  6  7  2  0  0  0
  7  8  1  0  0  0
  7  9  1  0  0  0
  9 10  1  0  0  0
 10 11  2  0  0  0
 11 12  1  0  0  0
 11 13  1  0  0  0
 13 14  2  0  0  0
 14 15  1  0  0  0
 15 16  2  0  0  0
 16 17  1  0  0  0
 16 18  1  0  0  0
 18 19  2  0  0  0
  9 20  2  0  0  0
 20 21  1  0  0  0
 21 22  1  0  0  0
 22 23  2  0  0  0
 23 24  1  0  0  0
 24 25  2  0  0  0
  4 26  1  0  0  0
 26 27  1  0  0  0
 27 28  1  0  0  0
 28 29  1  0  0  0
 29 30  2  0  0  0
 29 31  1  0  0  0
 31 32  1  0  0  0
 32 33  1  0  0  0
 33 34  1  0  0  0
 34 35  1  0  0  0
 28  1  1  0  0  0
 35 31  1  0  0  0
 25  6  1  0  0  0
 19 13  1  0  0  0
 25 21  1  0  0  0
 12 36  1  0  0  0
M  END
>  <CHROM.0>
-5.71808225,-30.98190633,-47.02844633,59.48691131,-170.86676867,13.51166402
72.95298063,61.35950671,-11.01753565

>  <CHROM.1>
73.20491750,49.21590582,93.53474046,167.04003227,168.00852284,-179.66144697
9.58387309,-28.58782610,-4.67584396,2.29014532,1.29970757,2.28368265

>  <Name>

>  <RI>
1.24701e+07

>  <Rbt.Current_Directory>
/extra/banzai2/j5wagner/CELPP/2016_10_17_rdock_implementation/normal_run/tutorialVideo/tutorial_rdock_implementation/full_week_run/4-docking/5m96/hiTanimoto_5iz0_docking

>  <Rbt.Executable>
rbdock ($Id: //depot/dev/client3/rdock/2013.1/src/exe/rbdock.cxx#4 $)

>  <Rbt.Library>
libRbt.so (2013.1, Build901 2013/11/27)

>  <Rbt.Parameter_File>
/home/j5wagner/env_00/source/rDock/rDock_2013.1_src//data/scripts/dock.prm

>  <Rbt.Receptor>
/extra/banzai2/j5wagner/CELPP/2016_10_17_rdock_implementation/normal_run/tutorialVideo/tutorial_rdock_implementation/full_week_run/4-docking/5m96/hiTanimoto_5iz0_tech_prep/rDockGridGenInput.prm

>  <SCORE>
-31.4261

>  <SCORE.INTER>
-16.5136

>  <SCORE.INTER.CONST>
1

>  <SCORE.INTER.POLAR>
-0.779811

>  <SCORE.INTER.REPUL>
0

>  <SCORE.INTER.ROT>
5

>  <SCORE.INTER.VDW>
-24.2622

>  <SCORE.INTER.norm>
-0.471817

>  <SCORE.INTRA>
0.184553

>  <SCORE.INTRA.DIHEDRAL>
0.131653

>  <SCORE.INTRA.DIHEDRAL.0>
9.74364

>  <SCORE.INTRA.POLAR>
0

>  <SCORE.INTRA.POLAR.0>
0

>  <SCORE.INTRA.REPUL>
-0.108387

>  <SCORE.INTRA.REPUL.0>
0.108387

>  <SCORE.INTRA.VDW>
0.660663

>  <SCORE.INTRA.VDW.0>
-2.87247

>  <SCORE.INTRA.norm>
0.00527295

>  <SCORE.RESTR>
0

>  <SCORE.RESTR.CAVITY>
0

>  <SCORE.RESTR.norm>
0

>  <SCORE.SYSTEM>
-15.0971

>  <SCORE.SYSTEM.CONST>
0

>  <SCORE.SYSTEM.DIHEDRAL>
3.04621

>  <SCORE.SYSTEM.POLAR>
-4.47302

>  <SCORE.SYSTEM.VDW>
-1.41193

>  <SCORE.SYSTEM.norm>
-0.431345

>  <SCORE.heavy>
35

>  <SCORE.norm>
-0.89789

$$$$

  rDOCK(R)          3D
libRbt.so/2013.1/901 2013/11/27
 36 40  0  0  0  0  0  0  0  0999 V2000
   13.3853  -26.5236   -1.8853 C   0  0  0  0  0  0
   13.8785  -27.7291   -2.6952 C   0  0  0  0  0  0
   11.8485  -26.4934   -1.8040 C   0  0  0  0  0  0
   11.3476  -27.5829   -0.9392 N   0  0  0  0  0  0
    9.8703  -27.5990   -0.9509 C   0  0  0  0  0  0
    9.3468  -27.9665   -2.3268 C   0  0  0  0  0  0
    9.0584  -29.3057   -2.7279 C   0  0  0  0  0  0
    9.3052  -30.4567   -1.7796 C   0  0  0  0  0  0
    8.5032  -29.5517   -4.0180 C   0  0  0  0  0  0
    8.1961  -30.8965   -4.4260 N   0  0  0  0  0  0
    8.7548  -31.5553   -5.4000 C   0  0  0  0  0  0
    9.7012  -30.9312   -6.2174 O   0  0  0  0  0  0
    8.3327  -32.9533   -5.6626 C   0  0  0  0  0  0
    7.2891  -33.5541   -4.9423 C   0  0  0  0  0  0
    6.9347  -34.8399   -5.1983 N   0  0  0  0  0  0
    7.5675  -35.5660   -6.1571 C   0  0  0  0  0  0
    7.1911  -36.9917   -6.3857 C   0  0  0  0  0  0
    8.5794  -35.0076   -6.8700 N   0  0  0  0  0  0
    8.9690  -33.7261   -6.6481 C   0  0  0  0  0  0
    8.3310  -28.4742   -4.9086 C   0  0  0  0  0  0
    8.6463  -27.2288   -4.4865 N   0  0  0  0  0  0
    8.5645  -26.0604   -5.1367 C   0  0  0  0  0  0
    9.0011  -25.0792   -4.2660 C   0  0  0  0  0  0
    9.3537  -25.6333   -3.0816 N   0  0  0  0  0  0
    9.1204  -26.9512   -3.2651 C   0  0  0  0  0  0
   11.8621  -27.4122    0.4362 C   0  0  0  0  0  0
   13.3875  -27.5125    0.4375 C   0  0  0  0  0  0
   13.9488  -26.5544   -0.5250 N   0  0  0  0  0  0
   14.9389  -25.5967   -0.0964 C   0  0  0  0  0  0
   14.9043  -25.1553    1.0858 O   0  0  0  0  0  0
   16.0632  -25.1563   -1.0144 C   0  0  0  0  0  0
   17.2822  -24.6748   -0.2226 C   0  0  0  0  0  0
   18.2840  -25.8304   -0.2017 C   0  0  0  0  0  0
   17.7178  -26.9372   -1.0860 C   0  0  0  0  0  0
   16.5666  -26.3199   -1.8632 C   0  0  0  0  0  0
    9.9467  -31.2826   -7.1335 H   0  0  0  0  0  0
  1  2  1  0  0  0
  1  3  1  0  0  0
  3  4  1  0  0  0
  4  5  1  0  0  0
  5  6  1  0  0  0
  6  7  2  0  0  0
  7  8  1  0  0  0
  7  9  1  0  0  0
  9 10  1  0  0  0
 10 11  2  0  0  0
 11 12  1  0  0  0
 11 13  1  0  0  0
 13 14  2  0  0  0
 14 15  1  0  0  0
 15 16  2  0  0  0
 16 17  1  0  0  0
 16 18  1  0  0  0
 18 19  2  0  0  0
  9 20  2  0  0  0
 20 21  1  0  0  0
 21 22  1  0  0  0
 22 23  2  0  0  0
 23 24  1  0  0  0
 24 25  2  0  0  0
  4 26  1  0  0  0
 26 27  1  0  0  0
 27 28  1  0  0  0
 28 29  1  0  0  0
 29 30  2  0  0  0
 29 31  1  0  0  0
 31 32  1  0  0  0
 32 33  1  0  0  0
 33 34  1  0  0  0
 34 35  1  0  0  0
 28  1  1  0  0  0
 35 31  1  0  0  0
 25  6  1  0  0  0
 19 13  1  0  0  0
 25 21  1  0  0  0
 12 36  1  0  0  0
M  END
>  <CHROM.0>
-4.13969757,2.04414235,-167.22761470,-47.11819400,169.96930651,-172.81208188
169.07348199,63.96719186,-115.82584820

>  <CHROM.1>
66.06058296,91.38046863,-115.48333777,-160.57658100,4.04499667,-154.60860032
11.09776550,-28.83869763,-2.97516546,-0.84111571,0.33783235,-2.83479080

>  <Name>

>  <RI>
1.24701e+07

>  <Rbt.Current_Directory>
/extra/banzai2/j5wagner/CELPP/2016_10_17_rdock_implementation/normal_run/tutorialVideo/tutorial_rdock_implementation/full_week_run/4-docking/5m96/hiTanimoto_5iz0_docking

>  <Rbt.Executable>
rbdock ($Id: //depot/dev/client3/rdock/2013.1/src/exe/rbdock.cxx#4 $)

>  <Rbt.Library>
libRbt.so (2013.1, Build901 2013/11/27)

>  <Rbt.Parameter_File>
/home/j5wagner/env_00/source/rDock/rDock_2013.1_src//data/scripts/dock.prm

>  <Rbt.Receptor>
/extra/banzai2/j5wagner/CELPP/2016_10_17_rdock_implementation/normal_run/tutorialVideo/tutorial_rdock_implementation/full_week_run/4-docking/5m96/hiTanimoto_5iz0_tech_prep/rDockGridGenInput.prm

>  <SCORE>
-19.0145

>  <SCORE.INTER>
-15.3405

>  <SCORE.INTER.CONST>
1

>  <SCORE.INTER.POLAR>
-0.976074

>  <SCORE.INTER.REPUL>
0.123641

>  <SCORE.INTER.ROT>
5

>  <SCORE.INTER.VDW>
-23.0401

>  <SCORE.INTER.norm>
-0.4383

>  <SCORE.INTRA>
1.09889

>  <SCORE.INTRA.DIHEDRAL>
0.0137228

>  <SCORE.INTRA.DIHEDRAL.0>
9.74364

>  <SCORE.INTRA.POLAR>
0

>  <SCORE.INTRA.POLAR.0>
0

>  <SCORE.INTRA.REPUL>
-0.108387

>  <SCORE.INTRA.REPUL.0>
0.108387

>  <SCORE.INTRA.VDW>
1.63397

>  <SCORE.INTRA.VDW.0>
-2.87247

>  <SCORE.INTRA.norm>
0.0313969

>  <SCORE.RESTR>
0

>  <SCORE.RESTR.CAVITY>
0

>  <SCORE.RESTR.norm>
0

>  <SCORE.SYSTEM>
-4.77289

>  <SCORE.SYSTEM.CONST>
0

>  <SCORE.SYSTEM.DIHEDRAL>
5.96955

>  <SCORE.SYSTEM.POLAR>
-2.11102

>  <SCORE.SYSTEM.REPUL>
0.174103

>  <SCORE.SYSTEM.VDW>
-1.4507

>  <SCORE.SYSTEM.norm>
-0.136368

>  <SCORE.heavy>
35

>  <SCORE.norm>
-0.543272

$$$$

  rDOCK(R)          3D
libRbt.so/2013.1/901 2013/11/27
 36 40  0  0  0  0  0  0  0  0999 V2000
    8.4409  -34.1546   -4.6232 C   0  0  0  0  0  0
    7.1390  -33.8137   -3.8875 C   0  0  0  0  0  0
    9.4523  -32.9975   -4.5389 C   0  0  0  0  0  0
    9.9826  -32.8635   -3.1653 N   0  0  0  0  0  0
   10.8755  -31.6895   -3.0804 C   0  0  0  0  0  0
   10.0718  -30.4121   -2.9243 C   0  0  0  0  0  0
   10.5146  -29.1403   -3.3976 C   0  0  0  0  0  0
   11.8643  -29.0012   -4.0639 C   0  0  0  0  0  0
    9.6626  -28.0042   -3.2696 C   0  0  0  0  0  0
   10.0942  -26.7211   -3.7561 N   0  0  0  0  0  0
    9.3805  -25.8741   -4.4403 C   0  0  0  0  0  0
    8.0841  -26.2102   -4.8398 O   0  0  0  0  0  0
    9.9815  -24.5764   -4.8358 C   0  0  0  0  0  0
    9.3206  -23.6938   -5.7037 C   0  0  0  0  0  0
    9.9031  -22.5187   -6.0561 N   0  0  0  0  0  0
   11.1233  -22.1660   -5.5726 C   0  0  0  0  0  0
   11.7622  -20.8916   -6.0132 C   0  0  0  0  0  0
   11.7833  -23.0012   -4.7296 N   0  0  0  0  0  0
   11.2408  -24.1867   -4.3505 C   0  0  0  0  0  0
    8.4323  -28.1404   -2.5975 C   0  0  0  0  0  0
    8.0740  -29.3632   -2.1447 N   0  0  0  0  0  0
    6.9671  -29.7415   -1.4919 C   0  0  0  0  0  0
    7.0777  -31.0996   -1.2573 C   0  0  0  0  0  0
    8.2466  -31.5636   -1.7598 N   0  0  0  0  0  0
    8.8229  -30.4638   -2.2920 C   0  0  0  0  0  0
   10.6971  -34.0985   -2.7778 C   0  0  0  0  0  0
    9.7259  -35.2789   -2.7637 C   0  0  0  0  0  0
    9.0430  -35.3755   -4.0612 N   0  0  0  0  0  0
    9.0775  -36.6112   -4.8049 C   0  0  0  0  0  0
   10.0890  -37.3613   -4.7155 O   0  0  0  0  0  0
    7.8965  -37.0640   -5.6422 C   0  0  0  0  0  0
    6.6292  -36.2738   -5.3040 C   0  0  0  0  0  0
    6.4742  -35.1990   -6.3811 C   0  0  0  0  0  0
    7.5662  -35.4373   -7.4196 C   0  0  0  0  0  0
    8.1463  -36.8111   -7.1259 C   0  0  0  0  0  0
    7.5163  -25.6028   -5.4157 H   0  0  0  0  0  0
  1  2  1  0  0  0
  1  3  1  0  0  0
  3  4  1  0  0  0
  4  5  1  0  0  0
  5  6  1  0  0  0
  6  7  2  0  0  0
  7  8  1  0  0  0
  7  9  1  0  0  0
  9 10  1  0  0  0
 10 11  2  0  0  0
 11 12  1  0  0  0
 11 13  1  0  0  0
 13 14  2  0  0  0
 14 15  1  0  0  0
 15 16  2  0  0  0
 16 17  1  0  0  0
 16 18  1  0  0  0
 18 19  2  0  0  0
  9 20  2  0  0  0
 20 21  1  0  0  0
 21 22  1  0  0  0
 22 23  2  0  0  0
 23 24  1  0  0  0
 24 25  2  0  0  0
  4 26  1  0  0  0
 26 27  1  0  0  0
 27 28  1  0  0  0
 28 29  1  0  0  0
 29 30  2  0  0  0
 29 31  1  0  0  0
 31 32  1  0  0  0
 32 33  1  0  0  0
 33 34  1  0  0  0
 34 35  1  0  0  0
 28  1  1  0  0  0
 35 31  1  0  0  0
 25  6  1  0  0  0
 19 13  1  0  0  0
 25 21  1  0  0  0
 12 36  1  0  0  0
M  END
>  <CHROM.0>
-150.35880783,1.67245910,71.25515641,-50.43416328,5.62774810,17.17638471
76.75745079,64.66127268,0.06939399

>  <CHROM.1>
80.86085907,-150.79504090,136.03858548,-176.48530988,172.36054464,-14.51900122
9.23983875,-30.39863230,-4.19131524,-3.07261830,1.40280765,1.49363132

>  <Name>

>  <RI>
1.24701e+07

>  <Rbt.Current_Directory>
/extra/banzai2/j5wagner/CELPP/2016_10_17_rdock_implementation/normal_run/tutorialVideo/tutorial_rdock_implementation/full_week_run/4-docking/5m96/hiTanimoto_5iz0_docking

>  <Rbt.Executable>
rbdock ($Id: //depot/dev/client3/rdock/2013.1/src/exe/rbdock.cxx#4 $)

>  <Rbt.Library>
libRbt.so (2013.1, Build901 2013/11/27)

>  <Rbt.Parameter_File>
/home/j5wagner/env_00/source/rDock/rDock_2013.1_src//data/scripts/dock.prm

>  <Rbt.Receptor>
/extra/banzai2/j5wagner/CELPP/2016_10_17_rdock_implementation/normal_run/tutorialVideo/tutorial_rdock_implementation/full_week_run/4-docking/5m96/hiTanimoto_5iz0_tech_prep/rDockGridGenInput.prm

>  <SCORE>
-18.7093

>  <SCORE.INTER>
-15.3267

>  <SCORE.INTER.CONST>
1

>  <SCORE.INTER.POLAR>
0

>  <SCORE.INTER.REPUL>
0

>  <SCORE.INTER.ROT>
5

>  <SCORE.INTER.VDW>
-25.7267

>  <SCORE.INTER.norm>
-0.437906

>  <SCORE.INTRA>
8.45106

>  <SCORE.INTRA.DIHEDRAL>
-1.67197

>  <SCORE.INTRA.DIHEDRAL.0>
9.74364

>  <SCORE.INTRA.POLAR>
0

>  <SCORE.INTRA.POLAR.0>
0

>  <SCORE.INTRA.REPUL>
0.368915

>  <SCORE.INTRA.REPUL.0>
0.108387

>  <SCORE.INTRA.VDW>
7.44247

>  <SCORE.INTRA.VDW.0>
-2.87247

>  <SCORE.INTRA.norm>
0.241459

>  <SCORE.RESTR>
0.0199428

>  <SCORE.RESTR.CAVITY>
0.0199428

>  <SCORE.RESTR.norm>
0.000569796

>  <SCORE.SYSTEM>
-11.8535

>  <SCORE.SYSTEM.CONST>
0

>  <SCORE.SYSTEM.DIHEDRAL>
3.79294

>  <SCORE.SYSTEM.POLAR>
-4.07713

>  <SCORE.SYSTEM.REPUL>
0.0122031

>  <SCORE.SYSTEM.VDW>
0.0511905

>  <SCORE.SYSTEM.norm>
-0.338673

>  <SCORE.heavy>
35

>  <SCORE.norm>
-0.534551

$$$$

  rDOCK(R)          3D
libRbt.so/2013.1/901 2013/11/27
 36 40  0  0  0  0  0  0  0  0999 V2000
    8.7327  -30.6951   -3.1656 C   0  0  0  0  0  0
    7.9422  -30.1145   -4.3448 C   0  0  0  0  0  0
    9.7325  -29.6697   -2.6014 C   0  0  0  0  0  0
    9.0241  -28.5782   -1.8995 N   0  0  0  0  0  0
    9.9907  -27.5551   -1.4504 C   0  0  0  0  0  0
   10.8777  -27.1115   -2.5988 C   0  0  0  0  0  0
   10.3930  -26.4061   -3.7412 C   0  0  0  0  0  0
    8.9204  -26.0930   -3.8772 C   0  0  0  0  0  0
   11.3103  -25.9670   -4.7406 C   0  0  0  0  0  0
   10.8333  -25.2432   -5.8887 N   0  0  0  0  0  0
   11.4285  -24.2448   -6.4750 C   0  0  0  0  0  0
   12.6137  -23.7258   -5.9464 O   0  0  0  0  0  0
   10.8033  -23.6335   -7.6736 C   0  0  0  0  0  0
    9.5374  -23.0308   -7.6163 C   0  0  0  0  0  0
    8.9871  -22.4908   -8.7344 N   0  0  0  0  0  0
    9.6470  -22.5098   -9.9224 C   0  0  0  0  0  0
    9.0000  -21.9524  -11.1460 C   0  0  0  0  0  0
   10.8743  -23.0851  -10.0045 N   0  0  0  0  0  0
   11.4633  -23.6386   -8.9136 C   0  0  0  0  0  0
   12.6703  -26.3147   -4.6253 C   0  0  0  0  0  0
   13.0710  -27.0078   -3.5356 N   0  0  0  0  0  0
   14.2936  -27.4418   -3.2014 C   0  0  0  0  0  0
   14.1759  -28.0936   -1.9877 C   0  0  0  0  0  0
   12.8881  -28.0665   -1.5695 N   0  0  0  0  0  0
   12.2492  -27.3925   -2.5505 C   0  0  0  0  0  0
    8.2643  -29.1241   -0.7549 C   0  0  0  0  0  0
    7.1949  -30.0949   -1.2556 C   0  0  0  0  0  0
    7.8163  -31.1272   -2.0968 N   0  0  0  0  0  0
    7.6176  -32.5231   -1.7916 C   0  0  0  0  0  0
    7.4688  -32.8805   -0.5900 O   0  0  0  0  0  0
    7.5168  -33.5663   -2.8881 C   0  0  0  0  0  0
    7.4027  -32.9209   -4.2721 C   0  0  0  0  0  0
    8.7960  -32.9676   -4.9012 C   0  0  0  0  0  0
    9.6958  -33.7530   -3.9519 C   0  0  0  0  0  0
    8.7762  -34.4256   -2.9458 C   0  0  0  0  0  0
   13.0378  -24.0863   -5.1020 H   0  0  0  0  0  0
  1  2  1  0  0  0
  1  3  1  0  0  0
  3  4  1  0  0  0
  4  5  1  0  0  0
  5  6  1  0  0  0
  6  7  2  0  0  0
  7  8  1  0  0  0
  7  9  1  0  0  0
  9 10  1  0  0  0
 10 11  2  0  0  0
 11 12  1  0  0  0
 11 13  1  0  0  0
 13 14  2  0  0  0
 14 15  1  0  0  0
 15 16  2  0  0  0
 16 17  1  0  0  0
 16 18  1  0  0  0
 18 19  2  0  0  0
  9 20  2  0  0  0
 20 21  1  0  0  0
 21 22  1  0  0  0
 22 23  2  0  0  0
 23 24  1  0  0  0
 24 25  2  0  0  0
  4 26  1  0  0  0
 26 27  1  0  0  0
 27 28  1  0  0  0
 28 29  1  0  0  0
 29 30  2  0  0  0
 29 31  1  0  0  0
 31 32  1  0  0  0
 32 33  1  0  0  0
 33 34  1  0  0  0
 34 35  1  0  0  0
 28  1  1  0  0  0
 35 31  1  0  0  0
 25  6  1  0  0  0
 19 13  1  0  0  0
 25 21  1  0  0  0
 12 36  1  0  0  0
M  END
>  <CHROM.0>
16.69801551,6.93617127,72.55648125,56.39045806,-168.84930127,13.98795779
78.63585905,65.17215141,4.12678094

>  <CHROM.1>
51.66105635,65.85208562,141.96754963,-0.92085264,61.33602652,-10.04200030
10.02099284,-27.85601856,-4.37338498,1.83961156,0.67814050,2.38156547

>  <Name>

>  <RI>
1.24701e+07

>  <Rbt.Current_Directory>
/extra/banzai2/j5wagner/CELPP/2016_10_17_rdock_implementation/normal_run/tutorialVideo/tutorial_rdock_implementation/full_week_run/4-docking/5m96/hiTanimoto_5iz0_docking

>  <Rbt.Executable>
rbdock ($Id: //depot/dev/client3/rdock/2013.1/src/exe/rbdock.cxx#4 $)

>  <Rbt.Library>
libRbt.so (2013.1, Build901 2013/11/27)

>  <Rbt.Parameter_File>
/home/j5wagner/env_00/source/rDock/rDock_2013.1_src//data/scripts/dock.prm

>  <Rbt.Receptor>
/extra/banzai2/j5wagner/CELPP/2016_10_17_rdock_implementation/normal_run/tutorialVideo/tutorial_rdock_implementation/full_week_run/4-docking/5m96/hiTanimoto_5iz0_tech_prep/rDockGridGenInput.prm

>  <SCORE>
-16.2145

>  <SCORE.INTER>
-13.4248

>  <SCORE.INTER.CONST>
1

>  <SCORE.INTER.POLAR>
-0.421043

>  <SCORE.INTER.REPUL>
0

>  <SCORE.INTER.ROT>
5

>  <SCORE.INTER.VDW>
-22.3932

>  <SCORE.INTER.norm>
-0.383565

>  <SCORE.INTRA>
11.7013

>  <SCORE.INTRA.DIHEDRAL>
7.26575

>  <SCORE.INTRA.DIHEDRAL.0>
9.74364

>  <SCORE.INTRA.POLAR>
0

>  <SCORE.INTRA.POLAR.0>
0

>  <SCORE.INTRA.REPUL>
-0.108387

>  <SCORE.INTRA.REPUL.0>
0.108387

>  <SCORE.INTRA.VDW>
8.61034

>  <SCORE.INTRA.VDW.0>
-2.87247

>  <SCORE.INTRA.norm>
0.334322

>  <SCORE.RESTR>
0.0854389

>  <SCORE.RESTR.CAVITY>
0.0854389

>  <SCORE.RESTR.norm>
0.00244111

>  <SCORE.SYSTEM>
-14.5764

>  <SCORE.SYSTEM.CONST>
0

>  <SCORE.SYSTEM.DIHEDRAL>
3.12176

>  <SCORE.SYSTEM.POLAR>
-4.2868

>  <SCORE.SYSTEM.VDW>
-1.56219

>  <SCORE.SYSTEM.norm>
-0.416469

>  <SCORE.heavy>
35

>  <SCORE.norm>
-0.463271

$$$$

  rDOCK(R)          3D
libRbt.so/2013.1/901 2013/11/27
 36 40  0  0  0  0  0  0  0  0999 V2000
   10.5322  -30.5380   -4.1071 C   0  0  0  0  0  0
   11.6787  -30.0734   -5.0139 C   0  0  0  0  0  0
   10.1280  -29.4400   -3.1071 C   0  0  0  0  0  0
    9.4477  -28.3248   -3.7994 N   0  0  0  0  0  0
    9.1548  -27.2387   -2.8416 C   0  0  0  0  0  0
   10.2475  -26.1864   -2.8703 C   0  0  0  0  0  0
   11.4715  -26.3021   -2.1451 C   0  0  0  0  0  0
   11.7238  -27.5006   -1.2592 C   0  0  0  0  0  0
   12.4726  -25.2965   -2.2858 C   0  0  0  0  0  0
   13.7151  -25.4112   -1.5699 N   0  0  0  0  0  0
   14.8611  -25.7803   -2.0651 C   0  0  0  0  0  0
   14.9504  -26.1901   -3.3982 O   0  0  0  0  0  0
   16.0531  -25.8128   -1.1821 C   0  0  0  0  0  0
   15.9625  -25.5192    0.1870 C   0  0  0  0  0  0
   17.0747  -25.5459    0.9660 N   0  0  0  0  0  0
   18.2892  -25.8660    0.4469 C   0  0  0  0  0  0
   19.5031  -25.8412    1.3143 C   0  0  0  0  0  0
   18.4039  -26.1563   -0.8747 N   0  0  0  0  0  0
   17.3201  -26.1411   -1.6923 C   0  0  0  0  0  0
   12.1992  -24.1601   -3.0717 C   0  0  0  0  0  0
   11.0122  -24.0887   -3.7155 N   0  0  0  0  0  0
   10.5309  -23.1278   -4.5153 C   0  0  0  0  0  0
    9.2743  -23.5326   -4.9262 C   0  0  0  0  0  0
    8.9747  -24.7372   -4.3847 N   0  0  0  0  0  0
   10.0683  -25.0366   -3.6503 C   0  0  0  0  0  0
    8.2075  -28.8108   -4.4407 C   0  0  0  0  0  0
    8.5467  -29.8521   -5.5072 C   0  0  0  0  0  0
    9.3623  -30.9215   -4.9152 N   0  0  0  0  0  0
    8.9438  -32.2972   -5.0317 C   0  0  0  0  0  0
    7.7117  -32.5701   -5.0675 O   0  0  0  0  0  0
    9.9516  -33.4211   -5.1792 C   0  0  0  0  0  0
   10.5777  -33.7978   -3.8335 C   0  0  0  0  0  0
    9.8493  -35.0481   -3.3382 C   0  0  0  0  0  0
    8.8924  -35.4831   -4.4439 C   0  0  0  0  0  0
    9.2823  -34.6959   -5.6842 C   0  0  0  0  0  0
   14.1623  -26.1612   -4.0314 H   0  0  0  0  0  0
  1  2  1  0  0  0
  1  3  1  0  0  0
  3  4  1  0  0  0
  4  5  1  0  0  0
  5  6  1  0  0  0
  6  7  2  0  0  0
  7  8  1  0  0  0
  7  9  1  0  0  0
  9 10  1  0  0  0
 10 11  2  0  0  0
 11 12  1  0  0  0
 11 13  1  0  0  0
 13 14  2  0  0  0
 14 15  1  0  0  0
 15 16  2  0  0  0
 16 17  1  0  0  0
 16 18  1  0  0  0
 18 19  2  0  0  0
  9 20  2  0  0  0
 20 21  1  0  0  0
 21 22  1  0  0  0
 22 23  2  0  0  0
 23 24  1  0  0  0
 24 25  2  0  0  0
  4 26  1  0  0  0
 26 27  1  0  0  0
 27 28  1  0  0  0
 28 29  1  0  0  0
 29 30  2  0  0  0
 29 31  1  0  0  0
 31 32  1  0  0  0
 32 33  1  0  0  0
 33 34  1  0  0  0
 34 35  1  0  0  0
 28  1  1  0  0  0
 35 31  1  0  0  0
 25  6  1  0  0  0
 19 13  1  0  0  0
 25 21  1  0  0  0
 12 36  1  0  0  0
M  END
>  <CHROM.0>
7.72801480,2.93175087,-166.96574075,58.56721187,173.18730606,13.93026325
170.37181187,169.26933882,-10.15643357

>  <CHROM.1>
95.17141032,-82.93217597,103.13055490,3.91356229,3.17736849,79.30225141,11.87567951
-28.09742079,-3.08025907,-2.38806863,-0.46683525,0.04164584

>  <Name>

>  <RI>
1.24701e+07

>  <Rbt.Current_Directory>
/extra/banzai2/j5wagner/CELPP/2016_10_17_rdock_implementation/normal_run/tutorialVideo/tutorial_rdock_implementation/full_week_run/4-docking/5m96/hiTanimoto_5iz0_docking

>  <Rbt.Executable>
rbdock ($Id: //depot/dev/client3/rdock/2013.1/src/exe/rbdock.cxx#4 $)

>  <Rbt.Library>
libRbt.so (2013.1, Build901 2013/11/27)

>  <Rbt.Parameter_File>
/home/j5wagner/env_00/source/rDock/rDock_2013.1_src//data/scripts/dock.prm

>  <Rbt.Receptor>
/extra/banzai2/j5wagner/CELPP/2016_10_17_rdock_implementation/normal_run/tutorialVideo/tutorial_rdock_implementation/full_week_run/4-docking/5m96/hiTanimoto_5iz0_tech_prep/rDockGridGenInput.prm

>  <SCORE>
-34.9487

>  <SCORE.INTER>
-22.4789

>  <SCORE.INTER.CONST>
1

>  <SCORE.INTER.POLAR>
-1.75201

>  <SCORE.INTER.REPUL>
0

>  <SCORE.INTER.ROT>
5

>  <SCORE.INTER.VDW>
-26.9221

>  <SCORE.INTER.norm>
-0.642254

>  <SCORE.INTRA>
0.347431

>  <SCORE.INTRA.DIHEDRAL>
-0.0509183

>  <SCORE.INTRA.DIHEDRAL.0>
9.74364

>  <SCORE.INTRA.POLAR>
0

>  <SCORE.INTRA.POLAR.0>
0

>  <SCORE.INTRA.REPUL>
-0.108387

>  <SCORE.INTRA.REPUL.0>
0.108387

>  <SCORE.INTRA.VDW>
0.914827

>  <SCORE.INTRA.VDW.0>
-2.87247

>  <SCORE.INTRA.norm>
0.0099266

>  <SCORE.RESTR>
0

>  <SCORE.RESTR.CAVITY>
0

>  <SCORE.RESTR.norm>
0

>  <SCORE.SYSTEM>
-12.8173

>  <SCORE.SYSTEM.CONST>
0

>  <SCORE.SYSTEM.DIHEDRAL>
1.99993

>  <SCORE.SYSTEM.POLAR>
-3.69547

>  <SCORE.SYSTEM.REPUL>
0.015246

>  <SCORE.SYSTEM.VDW>
-1.32889

>  <SCORE.SYSTEM.norm>
-0.366208

>  <SCORE.heavy>
35

>  <SCORE.norm>
-0.998535

$$$$

  rDOCK(R)          3D
libRbt.so/2013.1/901 2013/11/27
 36 40  0  0  0  0  0  0  0  0999 V2000
    7.6633  -32.0009   -4.4659 C   0  0  0  0  0  0
    7.3792  -32.1438   -2.9655 C   0  0  0  0  0  0
    8.4428  -30.7086   -4.7685 C   0  0  0  0  0  0
    9.8316  -30.8052   -4.2709 N   0  0  0  0  0  0
   10.5346  -29.5231   -4.4820 C   0  0  0  0  0  0
   10.8956  -28.8822   -3.1549 C   0  0  0  0  0  0
   12.2274  -28.5180   -2.7926 C   0  0  0  0  0  0
   13.3780  -28.7984   -3.7320 C   0  0  0  0  0  0
   12.4651  -27.8564   -1.5521 C   0  0  0  0  0  0
   13.8019  -27.4729   -1.1844 N   0  0  0  0  0  0
   14.2294  -27.2175    0.0185 C   0  0  0  0  0  0
   13.3395  -27.2258    1.0962 O   0  0  0  0  0  0
   15.6564  -26.8642    0.2186 C   0  0  0  0  0  0
   16.0862  -26.1506    1.3478 C   0  0  0  0  0  0
   17.3981  -25.8320    1.4955 N   0  0  0  0  0  0
   18.3204  -26.2027    0.5687 C   0  0  0  0  0  0
   19.7476  -25.7985    0.7309 C   0  0  0  0  0  0
   17.9311  -26.8956   -0.5323 N   0  0  0  0  0  0
   16.6305  -27.2353   -0.7231 C   0  0  0  0  0  0
   11.3901  -27.6523   -0.6653 C   0  0  0  0  0  0
   10.1528  -28.0416   -1.0475 N   0  0  0  0  0  0
    8.9879  -27.9494   -0.3924 C   0  0  0  0  0  0
    8.0150  -28.4854   -1.2156 C   0  0  0  0  0  0
    8.5707  -28.9098   -2.3754 N   0  0  0  0  0  0
    9.8812  -28.6183   -2.2255 C   0  0  0  0  0  0
   10.5361  -31.9114   -4.9534 C   0  0  0  0  0  0
    9.8562  -33.2411   -4.6275 C   0  0  0  0  0  0
    8.4262  -33.1612   -4.9563 N   0  0  0  0  0  0
    7.8323  -34.1373   -5.8371 C   0  0  0  0  0  0
    8.5290  -34.6474   -6.7580 O   0  0  0  0  0  0
    6.4063  -34.6157   -5.6414 C   0  0  0  0  0  0
    6.0672  -35.7775   -6.5795 C   0  0  0  0  0  0
    6.1914  -37.0626   -5.7595 C   0  0  0  0  0  0
    6.4714  -36.6541   -4.3165 C   0  0  0  0  0  0
    6.1988  -35.1612   -4.2316 C   0  0  0  0  0  0
   13.6341  -27.0511    2.0478 H   0  0  0  0  0  0
  1  2  1  0  0  0
  1  3  1  0  0  0
  3  4  1  0  0  0
  4  5  1  0  0  0
  5  6  1  0  0  0
  6  7  2  0  0  0
  7  8  1  0  0  0
  7  9  1  0  0  0
  9 10  1  0  0  0
 10 11  2  0  0  0
 11 12  1  0  0  0
 11 13  1  0  0  0
 13 14  2  0  0  0
 14 15  1  0  0  0
 15 16  2  0  0  0
 16 17  1  0  0  0
 16 18  1  0  0  0
 18 19  2  0  0  0
  9 20  2  0  0  0
 20 21  1  0  0  0
 21 22  1  0  0  0
 22 23  2  0  0  0
 23 24  1  0  0  0
 24 25  2  0  0  0
  4 26  1  0  0  0
 26 27  1  0  0  0
 27 28  1  0  0  0
 28 29  1  0  0  0
 29 30  2  0  0  0
 29 31  1  0  0  0
 31 32  1  0  0  0
 32 33  1  0  0  0
 33 34  1  0  0  0
 34 35  1  0  0  0
 28  1  1  0  0  0
 35 31  1  0  0  0
 25  6  1  0  0  0
 19 13  1  0  0  0
 25 21  1  0  0  0
 12 36  1  0  0  0
M  END
>  <CHROM.0>
-153.50734434,-118.21186108,-47.94976799,-175.78159475,169.95435780,13.81449766
70.97887141,63.39177183,-109.58596245

>  <CHROM.1>
114.82429015,123.75820058,-159.46101137,178.74494419,157.78477034,-172.49256312
11.09903573,-30.12076727,-2.61973445,2.32919437,-0.04256851,-2.49338634

>  <Name>

>  <RI>
1.24701e+07

>  <Rbt.Current_Directory>
/extra/banzai2/j5wagner/CELPP/2016_10_17_rdock_implementation/normal_run/tutorialVideo/tutorial_rdock_implementation/full_week_run/4-docking/5m96/hiTanimoto_5iz0_docking

>  <Rbt.Executable>
rbdock ($Id: //depot/dev/client3/rdock/2013.1/src/exe/rbdock.cxx#4 $)

>  <Rbt.Library>
libRbt.so (2013.1, Build901 2013/11/27)

>  <Rbt.Parameter_File>
/home/j5wagner/env_00/source/rDock/rDock_2013.1_src//data/scripts/dock.prm

>  <Rbt.Receptor>
/extra/banzai2/j5wagner/CELPP/2016_10_17_rdock_implementation/normal_run/tutorialVideo/tutorial_rdock_implementation/full_week_run/4-docking/5m96/hiTanimoto_5iz0_tech_prep/rDockGridGenInput.prm

>  <SCORE>
-28.7406

>  <SCORE.INTER>
-21.5761

>  <SCORE.INTER.CONST>
1

>  <SCORE.INTER.POLAR>
-0.91938

>  <SCORE.INTER.REPUL>
0

>  <SCORE.INTER.ROT>
5

>  <SCORE.INTER.VDW>
-28.8502

>  <SCORE.INTER.norm>
-0.616461

>  <SCORE.INTRA>
-1.27177

>  <SCORE.INTRA.DIHEDRAL>
-3.68493

>  <SCORE.INTRA.DIHEDRAL.0>
9.74364

>  <SCORE.INTRA.POLAR>
0

>  <SCORE.INTRA.POLAR.0>
0

>  <SCORE.INTRA.REPUL>
-0.104055

>  <SCORE.INTRA.REPUL.0>
0.108387

>  <SCORE.INTRA.VDW>
1.09097

>  <SCORE.INTRA.VDW.0>
-2.87247

>  <SCORE.INTRA.norm>
-0.0363363

>  <SCORE.RESTR>
0

>  <SCORE.RESTR.CAVITY>
0

>  <SCORE.RESTR.norm>
0

>  <SCORE.SYSTEM>
-5.89269

>  <SCORE.SYSTEM.CONST>
0

>  <SCORE.SYSTEM.DIHEDRAL>
10.4586

>  <SCORE.SYSTEM.POLAR>
-3.22496

>  <SCORE.SYSTEM.REPUL>
0.00342028

>  <SCORE.SYSTEM.VDW>
-0.174201

>  <SCORE.SYSTEM.norm>
-0.168363

>  <SCORE.heavy>
35

>  <SCORE.norm>
-0.82116

$$$$

  rDOCK(R)          3D
libRbt.so/2013.1/901 2013/11/27
 36 40  0  0  0  0  0  0  0  0999 V2000
   11.0071  -26.8704   -2.0407 C   0  0  0  0  0  0
   10.5361  -26.5313   -3.4604 C   0  0  0  0  0  0
    9.8316  -27.3111   -1.1501 C   0  0  0  0  0  0
    9.3331  -28.6413   -1.5601 N   0  0  0  0  0  0
    8.1455  -29.0046   -0.7601 C   0  0  0  0  0  0
    7.6384  -30.3822   -1.1442 C   0  0  0  0  0  0
    7.6585  -30.8844   -2.4802 C   0  0  0  0  0  0
    8.1688  -30.0227   -3.6124 C   0  0  0  0  0  0
    7.2256  -32.2181   -2.7390 C   0  0  0  0  0  0
    7.2552  -32.7381   -4.0800 N   0  0  0  0  0  0
    8.2252  -33.4134   -4.6257 C   0  0  0  0  0  0
    9.4139  -33.6274   -3.9226 O   0  0  0  0  0  0
    8.0719  -33.9011   -6.0186 C   0  0  0  0  0  0
    6.9296  -34.6046   -6.4301 C   0  0  0  0  0  0
    6.8251  -35.0484   -7.7093 N   0  0  0  0  0  0
    7.8089  -34.8145   -8.6173 C   0  0  0  0  0  0
    7.6909  -35.3543  -10.0034 C   0  0  0  0  0  0
    8.9238  -34.1344   -8.2454 N   0  0  0  0  0  0
    9.0728  -33.6727   -6.9773 C   0  0  0  0  0  0
    6.7021  -32.9878   -1.6819 C   0  0  0  0  0  0
    6.6812  -32.4528   -0.4402 N   0  0  0  0  0  0
    6.2457  -32.9823    0.7107 C   0  0  0  0  0  0
    6.4476  -32.0341    1.6965 C   0  0  0  0  0  0
    7.0042  -30.9209    1.1625 N   0  0  0  0  0  0
    7.1269  -31.2240   -0.1482 C   0  0  0  0  0  0
   10.4023  -29.6505   -1.4049 C   0  0  0  0  0  0
   11.5737  -29.3137   -2.3275 C   0  0  0  0  0  0
   12.0222  -27.9367   -2.0780 N   0  0  0  0  0  0
   13.4047  -27.6742   -1.7602 C   0  0  0  0  0  0
   14.0708  -28.5392   -1.1265 O   0  0  0  0  0  0
   14.0975  -26.4086   -2.2281 C   0  0  0  0  0  0
   14.4126  -25.4723   -1.0581 C   0  0  0  0  0  0
   15.8872  -25.6776   -0.7083 C   0  0  0  0  0  0
   16.4715  -26.6289   -1.7482 C   0  0  0  0  0  0
   15.4466  -26.7253   -2.8665 C   0  0  0  0  0  0
   10.2070  -34.1082   -4.3260 H   0  0  0  0  0  0
  1  2  1  0  0  0
  1  3  1  0  0  0
  3  4  1  0  0  0
  4  5  1  0  0  0
  5  6  1  0  0  0
  6  7  2  0  0  0
  7  8  1  0  0  0
  7  9  1  0  0  0
  9 10  1  0  0  0
 10 11  2  0  0  0
 11 12  1  0  0  0
 11 13  1  0  0  0
 13 14  2  0  0  0
 14 15  1  0  0  0
 15 16  2  0  0  0
 16 17  1  0  0  0
 16 18  1  0  0  0
 18 19  2  0  0  0
  9 20  2  0  0  0
 20 21  1  0  0  0
 21 22  1  0  0  0
 22 23  2  0  0  0
 23 24  1  0  0  0
 24 25  2  0  0  0
  4 26  1  0  0  0
 26 27  1  0  0  0
 27 28  1  0  0  0
 28 29  1  0  0  0
 29 30  2  0  0  0
 29 31  1  0  0  0
 31 32  1  0  0  0
 32 33  1  0  0  0
 33 34  1  0  0  0
 34 35  1  0  0  0
 28  1  1  0  0  0
 35 31  1  0  0  0
 25  6  1  0  0  0
 19 13  1  0  0  0
 25 21  1  0  0  0
 12 36  1  0  0  0
M  END
>  <CHROM.0>
-150.88594163,-31.01914732,-46.67248677,-50.68957452,-157.65133707,154.58245495
-48.47851450,69.98289470,-162.04653479

>  <CHROM.1>
-178.66504174,-36.43186284,93.09629437,-177.02806995,-49.92024410,111.02412578
9.72128687,-30.52354396,-2.90874626,-0.76159515,-0.60642245,-2.06109024

>  <Name>

>  <RI>
1.24701e+07

>  <Rbt.Current_Directory>
/extra/banzai2/j5wagner/CELPP/2016_10_17_rdock_implementation/normal_run/tutorialVideo/tutorial_rdock_implementation/full_week_run/4-docking/5m96/hiTanimoto_5iz0_docking

>  <Rbt.Executable>
rbdock ($Id: //depot/dev/client3/rdock/2013.1/src/exe/rbdock.cxx#4 $)

>  <Rbt.Library>
libRbt.so (2013.1, Build901 2013/11/27)

>  <Rbt.Parameter_File>
/home/j5wagner/env_00/source/rDock/rDock_2013.1_src//data/scripts/dock.prm

>  <Rbt.Receptor>
/extra/banzai2/j5wagner/CELPP/2016_10_17_rdock_implementation/normal_run/tutorialVideo/tutorial_rdock_implementation/full_week_run/4-docking/5m96/hiTanimoto_5iz0_tech_prep/rDockGridGenInput.prm

>  <SCORE>
-3.85294

>  <SCORE.INTER>
-5.1531

>  <SCORE.INTER.CONST>
1

>  <SCORE.INTER.POLAR>
0

>  <SCORE.INTER.REPUL>
0.0952342

>  <SCORE.INTER.ROT>
5

>  <SCORE.INTER.VDW>
-16.0293

>  <SCORE.INTER.norm>
-0.147231

>  <SCORE.INTRA>
5.67823

>  <SCORE.INTRA.DIHEDRAL>
8.11845

>  <SCORE.INTRA.DIHEDRAL.0>
9.74364

>  <SCORE.INTRA.POLAR>
0

>  <SCORE.INTRA.POLAR.0>
0

>  <SCORE.INTRA.REPUL>
-0.108387

>  <SCORE.INTRA.REPUL.0>
0.108387

>  <SCORE.INTRA.VDW>
2.16094

>  <SCORE.INTRA.VDW.0>
-2.87247

>  <SCORE.INTRA.norm>
0.162235

>  <SCORE.RESTR>
0

>  <SCORE.RESTR.CAVITY>
0

>  <SCORE.RESTR.norm>
0

>  <SCORE.SYSTEM>
-4.37807

>  <SCORE.SYSTEM.CONST>
0

>  <SCORE.SYSTEM.DIHEDRAL>
6.3803

>  <SCORE.SYSTEM.POLAR>
-2.24066

>  <SCORE.SYSTEM.REPUL>
0.115782

>  <SCORE.SYSTEM.VDW>
-0.528877

>  <SCORE.SYSTEM.norm>
-0.125088

>  <SCORE.heavy>
35

>  <SCORE.norm>
-0.110084

$$$$

  rDOCK(R)          3D
libRbt.so/2013.1/901 2013/11/27
 36 40  0  0  0  0  0  0  0  0999 V2000
   14.8654  -27.1917   -3.1938 C   0  0  0  0  0  0
   14.0562  -28.2122   -2.3838 C   0  0  0  0  0  0
   14.1731  -26.8585   -4.5276 C   0  0  0  0  0  0
   12.9479  -26.0635   -4.2982 N   0  0  0  0  0  0
   12.2454  -25.8367   -5.5780 C   0  0  0  0  0  0
   10.7435  -25.9501   -5.3952 C   0  0  0  0  0  0
   10.1163  -27.0043   -4.6651 C   0  0  0  0  0  0
   10.9472  -28.1092   -4.0539 C   0  0  0  0  0  0
    8.7019  -26.9934   -4.4852 C   0  0  0  0  0  0
    8.0621  -28.0438   -3.7391 N   0  0  0  0  0  0
    7.8367  -29.2579   -4.1516 C   0  0  0  0  0  0
    8.1546  -29.6242   -5.4623 O   0  0  0  0  0  0
    7.1889  -30.2251   -3.2317 C   0  0  0  0  0  0
    6.6894  -31.4540   -3.6892 C   0  0  0  0  0  0
    6.0907  -32.3125   -2.8238 N   0  0  0  0  0  0
    5.9721  -32.0113   -1.5038 C   0  0  0  0  0  0
    5.2674  -32.9505   -0.5830 C   0  0  0  0  0  0
    6.4489  -30.8295   -1.0349 N   0  0  0  0  0  0
    7.0537  -29.9396   -1.8629 C   0  0  0  0  0  0
    7.9379  -25.9869   -5.1073 C   0  0  0  0  0  0
    8.5811  -25.0275   -5.8105 N   0  0  0  0  0  0
    8.0826  -23.9772   -6.4759 C   0  0  0  0  0  0
    9.1546  -23.2957   -7.0219 C   0  0  0  0  0  0
   10.3131  -23.9185   -6.6994 N   0  0  0  0  0  0
    9.9112  -24.9741   -5.9584 C   0  0  0  0  0  0
   13.2934  -24.7796   -3.6517 C   0  0  0  0  0  0
   13.9156  -25.0387   -2.2797 C   0  0  0  0  0  0
   15.0560  -25.9552   -2.4169 N   0  0  0  0  0  0
   16.3501  -25.5796   -1.9017 C   0  0  0  0  0  0
   16.6854  -24.3625   -1.8936 O   0  0  0  0  0  0
   17.2938  -26.6074   -1.3069 C   0  0  0  0  0  0
   18.6440  -25.9866   -0.9375 C   0  0  0  0  0  0
   18.6154  -25.7230    0.5688 C   0  0  0  0  0  0
   17.3116  -26.3052    1.1062 C   0  0  0  0  0  0
   16.7388  -27.1725   -0.0029 C   0  0  0  0  0  0
    8.5998  -28.9905   -6.1128 H   0  0  0  0  0  0
  1  2  1  0  0  0
  1  3  1  0  0  0
  3  4  1  0  0  0
  4  5  1  0  0  0
  5  6  1  0  0  0
  6  7  2  0  0  0
  7  8  1  0  0  0
  7  9  1  0  0  0
  9 10  1  0  0  0
 10 11  2  0  0  0
 11 12  1  0  0  0
 11 13  1  0  0  0
 13 14  2  0  0  0
 14 15  1  0  0  0
 15 16  2  0  0  0
 16 17  1  0  0  0
 16 18  1  0  0  0
 18 19  2  0  0  0
  9 20  2  0  0  0
 20 21  1  0  0  0
 21 22  1  0  0  0
 22 23  2  0  0  0
 23 24  1  0  0  0
 24 25  2  0  0  0
  4 26  1  0  0  0
 26 27  1  0  0  0
 27 28  1  0  0  0
 28 29  1  0  0  0
 29 30  2  0  0  0
 29 31  1  0  0  0
 31 32  1  0  0  0
 32 33  1  0  0  0
 33 34  1  0  0  0
 34 35  1  0  0  0
 28  1  1  0  0  0
 35 31  1  0  0  0
 25  6  1  0  0  0
 19 13  1  0  0  0
 25 21  1  0  0  0
 12 36  1  0  0  0
M  END
>  <CHROM.0>
15.16564315,1.80354458,-167.15002730,58.68642525,176.98885357,12.40685542
73.38162514,63.13344981,-5.16894963

>  <CHROM.1>
140.45553307,-45.83535723,-75.63515516,2.82225552,167.56845178,175.29075513
11.36934271,-27.24972388,-3.29840624,-0.16114714,0.40013193,2.41379013

>  <Name>

>  <RI>
1.24701e+07

>  <Rbt.Current_Directory>
/extra/banzai2/j5wagner/CELPP/2016_10_17_rdock_implementation/normal_run/tutorialVideo/tutorial_rdock_implementation/full_week_run/4-docking/5m96/hiTanimoto_5iz0_docking

>  <Rbt.Executable>
rbdock ($Id: //depot/dev/client3/rdock/2013.1/src/exe/rbdock.cxx#4 $)

>  <Rbt.Library>
libRbt.so (2013.1, Build901 2013/11/27)

>  <Rbt.Parameter_File>
/home/j5wagner/env_00/source/rDock/rDock_2013.1_src//data/scripts/dock.prm

>  <Rbt.Receptor>
/extra/banzai2/j5wagner/CELPP/2016_10_17_rdock_implementation/normal_run/tutorialVideo/tutorial_rdock_implementation/full_week_run/4-docking/5m96/hiTanimoto_5iz0_tech_prep/rDockGridGenInput.prm

>  <SCORE>
-27.691

>  <SCORE.INTER>
-12.9488

>  <SCORE.INTER.CONST>
1

>  <SCORE.INTER.POLAR>
0

>  <SCORE.INTER.REPUL>
0.314611

>  <SCORE.INTER.ROT>
5

>  <SCORE.INTER.VDW>
-24.9219

>  <SCORE.INTER.norm>
-0.369967

>  <SCORE.INTRA>
0.14297

>  <SCORE.INTRA.DIHEDRAL>
0.00977668

>  <SCORE.INTRA.DIHEDRAL.0>
9.74364

>  <SCORE.INTRA.POLAR>
0

>  <SCORE.INTRA.POLAR.0>
0

>  <SCORE.INTRA.REPUL>
-0.108387

>  <SCORE.INTRA.REPUL.0>
0.108387

>  <SCORE.INTRA.VDW>
0.680017

>  <SCORE.INTRA.VDW.0>
-2.87247

>  <SCORE.INTRA.norm>
0.00408484

>  <SCORE.RESTR>
0

>  <SCORE.RESTR.CAVITY>
0

>  <SCORE.RESTR.norm>
0

>  <SCORE.SYSTEM>
-14.8851

>  <SCORE.SYSTEM.CONST>
0

>  <SCORE.SYSTEM.DIHEDRAL>
1.89665

>  <SCORE.SYSTEM.POLAR>
-4.34243

>  <SCORE.SYSTEM.VDW>
-1.0692

>  <SCORE.SYSTEM.norm>
-0.42529

>  <SCORE.heavy>
35

>  <SCORE.norm>
-0.791172

$$$$

  rDOCK(R)          3D
libRbt.so/2013.1/901 2013/11/27
 36 40  0  0  0  0  0  0  0  0999 V2000
    8.7578  -32.7988   -4.9551 C   0  0  0  0  0  0
    7.4769  -32.2641   -4.3026 C   0  0  0  0  0  0
    9.9495  -31.8570   -4.7058 C   0  0  0  0  0  0
   10.3667  -31.9033   -3.2881 N   0  0  0  0  0  0
   11.4453  -30.9231   -3.0464 C   0  0  0  0  0  0
   10.9037  -29.5062   -3.0844 C   0  0  0  0  0  0
   11.6025  -28.4116   -3.6768 C   0  0  0  0  0  0
   12.9737  -28.6171   -4.2789 C   0  0  0  0  0  0
   10.9865  -27.1267   -3.7290 C   0  0  0  0  0  0
   11.6770  -26.0205   -4.3364 N   0  0  0  0  0  0
   11.1313  -25.0229   -4.9703 C   0  0  0  0  0  0
    9.7502  -24.9976   -5.1829 O   0  0  0  0  0  0
   11.9996  -23.9476   -5.5098 C   0  0  0  0  0  0
   13.3690  -23.8878   -5.2095 C   0  0  0  0  0  0
   14.1343  -22.8834   -5.7094 N   0  0  0  0  0  0
   13.6011  -21.9272   -6.5147 C   0  0  0  0  0  0
   14.4535  -20.8078   -7.0116 C   0  0  0  0  0  0
   12.2791  -21.9632   -6.8224 N   0  0  0  0  0  0
   11.4748  -22.9473   -6.3449 C   0  0  0  0  0  0
    9.7327  -26.9405   -3.1150 C   0  0  0  0  0  0
    9.1269  -28.0061   -2.5439 N   0  0  0  0  0  0
    7.9471  -28.0816   -1.9140 C   0  0  0  0  0  0
    7.7813  -29.3958   -1.5176 C   0  0  0  0  0  0
    8.8517  -30.1335   -1.8973 N   0  0  0  0  0  0
    9.6494  -29.2391   -2.5207 C   0  0  0  0  0  0
   10.8077  -33.2699   -2.9365 C   0  0  0  0  0  0
    9.6422  -34.2476   -3.0865 C   0  0  0  0  0  0
    9.0753  -34.1406   -4.4380 N   0  0  0  0  0  0
    8.9542  -35.3164   -5.2651 C   0  0  0  0  0  0
    9.8010  -36.2456   -5.1505 O   0  0  0  0  0  0
    7.7929  -35.4924   -6.2249 C   0  0  0  0  0  0
    7.6441  -36.9503   -6.6690 C   0  0  0  0  0  0
    6.5240  -37.5606   -5.8251 C   0  0  0  0  0  0
    5.9270  -36.4368   -4.9834 C   0  0  0  0  0  0
    6.4687  -35.1370   -5.5554 C   0  0  0  0  0  0
    9.2958  -24.2780   -5.7294 H   0  0  0  0  0  0
  1  2  1  0  0  0
  1  3  1  0  0  0
  3  4  1  0  0  0
  4  5  1  0  0  0
  5  6  1  0  0  0
  6  7  2  0  0  0
  7  8  1  0  0  0
  7  9  1  0  0  0
  9 10  1  0  0  0
 10 11  2  0  0  0
 11 12  1  0  0  0
 11 13  1  0  0  0
 13 14  2  0  0  0
 14 15  1  0  0  0
 15 16  2  0  0  0
 16 17  1  0  0  0
 16 18  1  0  0  0
 18 19  2  0  0  0
  9 20  2  0  0  0
 20 21  1  0  0  0
 21 22  1  0  0  0
 22 23  2  0  0  0
 23 24  1  0  0  0
 24 25  2  0  0  0
  4 26  1  0  0  0
 26 27  1  0  0  0
 27 28  1  0  0  0
 28 29  1  0  0  0
 29 30  2  0  0  0
 29 31  1  0  0  0
 31 32  1  0  0  0
 32 33  1  0  0  0
 33 34  1  0  0  0
 34 35  1  0  0  0
 28  1  1  0  0  0
 35 31  1  0  0  0
 25  6  1  0  0  0
 19 13  1  0  0  0
 25 21  1  0  0  0
 12 36  1  0  0  0
M  END
>  <CHROM.0>
-149.68304354,2.18451817,-167.16671397,60.61593541,-172.13242067,164.73057626
79.38936718,-63.82276293,-5.76549865

>  <CHROM.1>
71.72957790,-140.60052882,148.21075742,-175.30313605,-8.28375755,-162.92831106
10.09575565,-29.62098479,-4.48572547,-2.30681925,1.01775181,0.60036786

>  <Name>

>  <RI>
1.24701e+07

>  <Rbt.Current_Directory>
/extra/banzai2/j5wagner/CELPP/2016_10_17_rdock_implementation/normal_run/tutorialVideo/tutorial_rdock_implementation/full_week_run/4-docking/5m96/hiTanimoto_5iz0_docking

>  <Rbt.Executable>
rbdock ($Id: //depot/dev/client3/rdock/2013.1/src/exe/rbdock.cxx#4 $)

>  <Rbt.Library>
libRbt.so (2013.1, Build901 2013/11/27)

>  <Rbt.Parameter_File>
/home/j5wagner/env_00/source/rDock/rDock_2013.1_src//data/scripts/dock.prm

>  <Rbt.Receptor>
/extra/banzai2/j5wagner/CELPP/2016_10_17_rdock_implementation/normal_run/tutorialVideo/tutorial_rdock_implementation/full_week_run/4-docking/5m96/hiTanimoto_5iz0_tech_prep/rDockGridGenInput.prm

>  <SCORE>
-26.8465

>  <SCORE.INTER>
-13.155

>  <SCORE.INTER.CONST>
1

>  <SCORE.INTER.POLAR>
0

>  <SCORE.INTER.REPUL>
0.0487991

>  <SCORE.INTER.ROT>
5

>  <SCORE.INTER.VDW>
-23.799

>  <SCORE.INTER.norm>
-0.375856

>  <SCORE.INTRA>
-0.544973

>  <SCORE.INTRA.DIHEDRAL>
-5.55872

>  <SCORE.INTRA.DIHEDRAL.0>
9.74364

>  <SCORE.INTRA.POLAR>
0

>  <SCORE.INTRA.POLAR.0>
0

>  <SCORE.INTRA.REPUL>
0.250068

>  <SCORE.INTRA.REPUL.0>
0.108387

>  <SCORE.INTRA.VDW>
0.984045

>  <SCORE.INTRA.VDW.0>
-2.87247

>  <SCORE.INTRA.norm>
-0.0155707

>  <SCORE.RESTR>
0.510761

>  <SCORE.RESTR.CAVITY>
0.510761

>  <SCORE.RESTR.norm>
0.0145932

>  <SCORE.SYSTEM>
-13.6573

>  <SCORE.SYSTEM.CONST>
0

>  <SCORE.SYSTEM.DIHEDRAL>
3.87345

>  <SCORE.SYSTEM.POLAR>
-4.17516

>  <SCORE.SYSTEM.REPUL>
0.12603

>  <SCORE.SYSTEM.VDW>
-2.02861

>  <SCORE.SYSTEM.norm>
-0.390209

>  <SCORE.heavy>
35

>  <SCORE.norm>
-0.767042

$$$$

  rDOCK(R)          3D
libRbt.so/2013.1/901 2013/11/27
 36 40  0  0  0  0  0  0  0  0999 V2000
   13.8563  -27.8038   -2.2830 C   0  0  0  0  0  0
   14.2990  -29.2423   -1.9879 C   0  0  0  0  0  0
   12.7157  -27.7688   -3.3160 C   0  0  0  0  0  0
   11.4618  -28.2890   -2.7304 N   0  0  0  0  0  0
   10.4051  -28.3395   -3.7617 C   0  0  0  0  0  0
    9.3084  -29.3089   -3.3619 C   0  0  0  0  0  0
    9.2264  -30.6488   -3.8472 C   0  0  0  0  0  0
   10.2415  -31.1643   -4.8416 C   0  0  0  0  0  0
    8.2001  -31.5125   -3.3637 C   0  0  0  0  0  0
    8.1175  -32.8687   -3.8362 N   0  0  0  0  0  0
    7.0474  -33.4741   -4.2645 C   0  0  0  0  0  0
    5.8094  -32.8271   -4.2195 O   0  0  0  0  0  0
    7.1525  -34.8737   -4.7457 C   0  0  0  0  0  0
    6.0431  -35.5583   -5.2649 C   0  0  0  0  0  0
    6.1695  -36.8432   -5.6859 N   0  0  0  0  0  0
    7.3643  -37.4882   -5.6266 C   0  0  0  0  0  0
    7.4655  -38.9152   -6.0508 C   0  0  0  0  0  0
    8.4540  -36.8478   -5.1303 N   0  0  0  0  0  0
    8.3752  -35.5636   -4.6965 C   0  0  0  0  0  0
    7.2306  -31.0000   -2.4798 C   0  0  0  0  0  0
    7.3403  -29.7150   -2.0732 N   0  0  0  0  0  0
    6.5584  -29.0122   -1.2429 C   0  0  0  0  0  0
    7.1017  -27.7443   -1.1486 C   0  0  0  0  0  0
    8.2141  -27.6579   -1.9162 N   0  0  0  0  0  0
    8.3191  -28.8884   -2.4637 C   0  0  0  0  0  0
   11.0473  -27.4419   -1.5919 C   0  0  0  0  0  0
   12.1057  -27.4964   -0.4902 C   0  0  0  0  0  0
   13.4184  -27.1376   -1.0448 N   0  0  0  0  0  0
   14.1881  -26.0737   -0.4473 C   0  0  0  0  0  0
   13.5893  -25.1005    0.0893 O   0  0  0  0  0  0
   15.7028  -26.1290   -0.3898 C   0  0  0  0  0  0
   16.3373  -25.5336   -1.6498 C   0  0  0  0  0  0
   16.7709  -24.1093   -1.2994 C   0  0  0  0  0  0
   16.5152  -23.9117    0.1917 C   0  0  0  0  0  0
   16.2391  -25.2911    0.7671 C   0  0  0  0  0  0
    5.7130  -31.8512   -3.9719 H   0  0  0  0  0  0
  1  2  1  0  0  0
  1  3  1  0  0  0
  3  4  1  0  0  0
  4  5  1  0  0  0
  5  6  1  0  0  0
  6  7  2  0  0  0
  7  8  1  0  0  0
  7  9  1  0  0  0
  9 10  1  0  0  0
 10 11  2  0  0  0
 11 12  1  0  0  0
 11 13  1  0  0  0
 13 14  2  0  0  0
 14 15  1  0  0  0
 15 16  2  0  0  0
 16 17  1  0  0  0
 16 18  1  0  0  0
 18 19  2  0  0  0
  9 20  2  0  0  0
 20 21  1  0  0  0
 21 22  1  0  0  0
 22 23  2  0  0  0
 23 24  1  0  0  0
 24 25  2  0  0  0
  4 26  1  0  0  0
 26 27  1  0  0  0
 27 28  1  0  0  0
 28 29  1  0  0  0
 29 30  2  0  0  0
 29 31  1  0  0  0
 31 32  1  0  0  0
 32 33  1  0  0  0
 33 34  1  0  0  0
 34 35  1  0  0  0
 28  1  1  0  0  0
 35 31  1  0  0  0
 25  6  1  0  0  0
 19 13  1  0  0  0
 25 21  1  0  0  0
 12 36  1  0  0  0
M  END
>  <CHROM.0>
17.39257961,-31.24368823,73.08043975,62.69742693,39.88349255,164.03427562
79.19204885,66.71110565,-23.67319286

>  <CHROM.1>
159.10792953,-98.46104338,-131.81266289,7.85408605,-177.56753266,88.18486743
10.40825447,-30.00333525,-2.73297884,-0.93491317,-0.03016380,-2.71388027

>  <Name>

>  <RI>
1.24701e+07

>  <Rbt.Current_Directory>
/extra/banzai2/j5wagner/CELPP/2016_10_17_rdock_implementation/normal_run/tutorialVideo/tutorial_rdock_implementation/full_week_run/4-docking/5m96/hiTanimoto_5iz0_docking

>  <Rbt.Executable>
rbdock ($Id: //depot/dev/client3/rdock/2013.1/src/exe/rbdock.cxx#4 $)

>  <Rbt.Library>
libRbt.so (2013.1, Build901 2013/11/27)

>  <Rbt.Parameter_File>
/home/j5wagner/env_00/source/rDock/rDock_2013.1_src//data/scripts/dock.prm

>  <Rbt.Receptor>
/extra/banzai2/j5wagner/CELPP/2016_10_17_rdock_implementation/normal_run/tutorialVideo/tutorial_rdock_implementation/full_week_run/4-docking/5m96/hiTanimoto_5iz0_tech_prep/rDockGridGenInput.prm

>  <SCORE>
-13.7989

>  <SCORE.INTER>
-3.45025

>  <SCORE.INTER.CONST>
1

>  <SCORE.INTER.POLAR>
0

>  <SCORE.INTER.REPUL>
0.0990742

>  <SCORE.INTER.ROT>
5

>  <SCORE.INTER.VDW>
-14.3456

>  <SCORE.INTER.norm>
-0.0985785

>  <SCORE.INTRA>
-0.0142534

>  <SCORE.INTRA.DIHEDRAL>
-2.92636

>  <SCORE.INTRA.DIHEDRAL.0>
9.74364

>  <SCORE.INTRA.POLAR>
0

>  <SCORE.INTRA.POLAR.0>
0

>  <SCORE.INTRA.REPUL>
-0.108387

>  <SCORE.INTRA.REPUL.0>
0.108387

>  <SCORE.INTRA.VDW>
1.99086

>  <SCORE.INTRA.VDW.0>
-2.87247

>  <SCORE.INTRA.norm>
-0.000407241

>  <SCORE.RESTR>
0

>  <SCORE.RESTR.CAVITY>
0

>  <SCORE.RESTR.norm>
0

>  <SCORE.SYSTEM>
-10.3344

>  <SCORE.SYSTEM.CONST>
0

>  <SCORE.SYSTEM.DIHEDRAL>
7.13844

>  <SCORE.SYSTEM.POLAR>
-3.6843

>  <SCORE.SYSTEM.REPUL>
0.123442

>  <SCORE.SYSTEM.VDW>
-1.9942

>  <SCORE.SYSTEM.norm>
-0.295268

>  <SCORE.heavy>
35

>  <SCORE.norm>
-0.394254

$$$$

  rDOCK(R)          3D
libRbt.so/2013.1/901 2013/11/27
 36 40  0  0  0  0  0  0  0  0999 V2000
    9.9888  -30.7439   -3.2905 C   0  0  0  0  0  0
   11.3864  -30.5986   -3.9053 C   0  0  0  0  0  0
    9.5985  -29.4929   -2.4832 C   0  0  0  0  0  0
    9.3458  -28.3465   -3.3820 N   0  0  0  0  0  0
    9.0686  -27.1325   -2.5870 C   0  0  0  0  0  0
   10.2064  -26.1363   -2.7111 C   0  0  0  0  0  0
   11.4366  -26.2530   -1.9966 C   0  0  0  0  0  0
   11.6509  -27.3917   -1.0259 C   0  0  0  0  0  0
   12.4788  -25.3076   -2.2275 C   0  0  0  0  0  0
   13.7273  -25.4248   -1.5226 N   0  0  0  0  0  0
   14.8860  -25.7073   -2.0447 C   0  0  0  0  0  0
   14.9877  -26.0105   -3.4052 O   0  0  0  0  0  0
   16.0812  -25.7574   -1.1670 C   0  0  0  0  0  0
   15.9908  -25.5207    0.2132 C   0  0  0  0  0  0
   17.1058  -25.5619    0.9874 N   0  0  0  0  0  0
   18.3233  -25.8424    0.4524 C   0  0  0  0  0  0
   19.5396  -25.8343    1.3168 C   0  0  0  0  0  0
   18.4380  -26.0773   -0.8800 N   0  0  0  0  0  0
   17.3513  -26.0456   -1.6934 C   0  0  0  0  0  0
   12.2425  -24.2223   -3.0935 C   0  0  0  0  0  0
   11.0487  -24.1454   -3.7240 N   0  0  0  0  0  0
   10.5965  -23.2264   -4.5875 C   0  0  0  0  0  0
    9.3161  -23.6031   -4.9486 C   0  0  0  0  0  0
    8.9729  -24.7486   -4.3130 N   0  0  0  0  0  0
   10.0648  -25.0415   -3.5735 C   0  0  0  0  0  0
    8.2172  -28.6537   -4.2862 C   0  0  0  0  0  0
    8.5731  -29.8439   -5.1770 C   0  0  0  0  0  0
    8.9873  -30.9813   -4.3438 N   0  0  0  0  0  0
    8.3317  -32.2582   -4.4879 C   0  0  0  0  0  0
    7.1132  -32.2967   -4.8160 O   0  0  0  0  0  0
    9.0903  -33.5607   -4.3188 C   0  0  0  0  0  0
    8.1451  -34.7653   -4.2959 C   0  0  0  0  0  0
    8.1805  -35.3854   -5.6936 C   0  0  0  0  0  0
    9.2381  -34.6338   -6.4962 C   0  0  0  0  0  0
   10.0290  -33.8062   -5.4963 C   0  0  0  0  0  0
   14.2047  -25.9340   -4.0408 H   0  0  0  0  0  0
  1  2  1  0  0  0
  1  3  1  0  0  0
  3  4  1  0  0  0
  4  5  1  0  0  0
  5  6  1  0  0  0
  6  7  2  0  0  0
  7  8  1  0  0  0
  7  9  1  0  0  0
  9 10  1  0  0  0
 10 11  2  0  0  0
 11 12  1  0  0  0
 11 13  1  0  0  0
 13 14  2  0  0  0
 14 15  1  0  0  0
 15 16  2  0  0  0
 16 17  1  0  0  0
 16 18  1  0  0  0
 18 19  2  0  0  0
  9 20  2  0  0  0
 20 21  1  0  0  0
 21 22  1  0  0  0
 22 23  2  0  0  0
 23 24  1  0  0  0
 24 25  2  0  0  0
  4 26  1  0  0  0
 26 27  1  0  0  0
 27 28  1  0  0  0
 28 29  1  0  0  0
 29 30  2  0  0  0
 29 31  1  0  0  0
 31 32  1  0  0  0
 32 33  1  0  0  0
 33 34  1  0  0  0
 34 35  1  0  0  0
 28  1  1  0  0  0
 35 31  1  0  0  0
 25  6  1  0  0  0
 19 13  1  0  0  0
 25 21  1  0  0  0
 12 36  1  0  0  0
M  END
>  <CHROM.0>
-158.35460902,-29.90916240,-46.52100349,60.15614507,19.28661983,14.23033691
170.46396480,169.21564074,-107.79073792

>  <CHROM.1>
110.60635899,-78.51681497,113.18055303,6.19382972,0.63034218,170.88116636
11.68209779,-28.08464468,-3.02522960,-2.41082170,-0.43442189,0.06437648

>  <Name>

>  <RI>
1.24701e+07

>  <Rbt.Current_Directory>
/extra/banzai2/j5wagner/CELPP/2016_10_17_rdock_implementation/normal_run/tutorialVideo/tutorial_rdock_implementation/full_week_run/4-docking/5m96/hiTanimoto_5iz0_docking

>  <Rbt.Executable>
rbdock ($Id: //depot/dev/client3/rdock/2013.1/src/exe/rbdock.cxx#4 $)

>  <Rbt.Library>
libRbt.so (2013.1, Build901 2013/11/27)

>  <Rbt.Parameter_File>
/home/j5wagner/env_00/source/rDock/rDock_2013.1_src//data/scripts/dock.prm

>  <Rbt.Receptor>
/extra/banzai2/j5wagner/CELPP/2016_10_17_rdock_implementation/normal_run/tutorialVideo/tutorial_rdock_implementation/full_week_run/4-docking/5m96/hiTanimoto_5iz0_tech_prep/rDockGridGenInput.prm

>  <SCORE>
-33.151

>  <SCORE.INTER>
-20.7844

>  <SCORE.INTER.CONST>
1

>  <SCORE.INTER.POLAR>
-1.74907

>  <SCORE.INTER.REPUL>
0

>  <SCORE.INTER.ROT>
5

>  <SCORE.INTER.VDW>
-25.2376

>  <SCORE.INTER.norm>
-0.59384

>  <SCORE.INTRA>
-0.306585

>  <SCORE.INTRA.DIHEDRAL>
-0.0852419

>  <SCORE.INTRA.DIHEDRAL.0>
9.74364

>  <SCORE.INTRA.POLAR>
0

>  <SCORE.INTRA.POLAR.0>
0

>  <SCORE.INTRA.REPUL>
-0.108387

>  <SCORE.INTRA.REPUL.0>
0.108387

>  <SCORE.INTRA.VDW>
0.277972

>  <SCORE.INTRA.VDW.0>
-2.87247

>  <SCORE.INTRA.norm>
-0.00875958

>  <SCORE.RESTR>
0

>  <SCORE.RESTR.CAVITY>
0

>  <SCORE.RESTR.norm>
0

>  <SCORE.SYSTEM>
-12.06

>  <SCORE.SYSTEM.CONST>
0

>  <SCORE.SYSTEM.DIHEDRAL>
8.41219

>  <SCORE.SYSTEM.POLAR>
-4.30394

>  <SCORE.SYSTEM.REPUL>
0.0166416

>  <SCORE.SYSTEM.VDW>
-1.7159

>  <SCORE.SYSTEM.norm>
-0.344572

>  <SCORE.heavy>
35

>  <SCORE.norm>
-0.947172

$$$$

  rDOCK(R)          3D
libRbt.so/2013.1/901 2013/11/27
 36 40  0  0  0  0  0  0  0  0999 V2000
   10.2484  -30.7954   -3.8889 C   0  0  0  0  0  0
   10.6344  -30.2192   -5.2569 C   0  0  0  0  0  0
   10.2193  -29.7008   -2.8073 C   0  0  0  0  0  0
    9.0735  -28.7895   -3.0142 N   0  0  0  0  0  0
    9.1170  -27.6907   -2.0276 C   0  0  0  0  0  0
   10.2664  -26.7458   -2.3244 C   0  0  0  0  0  0
   11.5062  -26.7673   -1.6174 C   0  0  0  0  0  0
   11.7202  -27.7404   -0.4806 C   0  0  0  0  0  0
   12.5576  -25.8880   -2.0102 C   0  0  0  0  0  0
   13.8157  -25.9119   -1.3129 N   0  0  0  0  0  0
   14.9969  -26.0014   -1.8527 C   0  0  0  0  0  0
   15.1265  -26.1678   -3.2343 O   0  0  0  0  0  0
   16.1949  -25.9810   -0.9775 C   0  0  0  0  0  0
   16.0884  -25.8119    0.4114 C   0  0  0  0  0  0
   17.2052  -25.7854    1.1836 N   0  0  0  0  0  0
   18.4411  -25.9326    0.6376 C   0  0  0  0  0  0
   19.6547  -25.8517    1.5020 C   0  0  0  0  0  0
   18.5718  -26.0998   -0.7035 N   0  0  0  0  0  0
   17.4839  -26.1314   -1.5152 C   0  0  0  0  0  0
   12.3226  -24.9506   -3.0348 C   0  0  0  0  0  0
   11.1199  -24.9554   -3.6531 N   0  0  0  0  0  0
   10.6668  -24.1783   -4.6458 C   0  0  0  0  0  0
    9.3756  -24.5867   -4.9247 C   0  0  0  0  0  0
    9.0267  -25.6107   -4.1099 N   0  0  0  0  0  0
   10.1262  -25.8000   -3.3482 C   0  0  0  0  0  0
    7.8053  -29.5421   -2.9097 C   0  0  0  0  0  0
    7.7347  -30.5986   -4.0123 C   0  0  0  0  0  0
    8.9312  -31.4500   -3.9613 N   0  0  0  0  0  0
    8.7941  -32.8828   -3.8628 C   0  0  0  0  0  0
    7.8069  -33.3706   -3.2454 O   0  0  0  0  0  0
    9.7745  -33.8200   -4.5418 C   0  0  0  0  0  0
    9.5826  -35.2677   -4.0809 C   0  0  0  0  0  0
    8.7664  -35.9751   -5.1638 C   0  0  0  0  0  0
    8.5918  -34.9900   -6.3157 C   0  0  0  0  0  0
    9.5551  -33.8444   -6.0515 C   0  0  0  0  0  0
   14.3296  -26.2053   -3.8560 H   0  0  0  0  0  0
  1  2  1  0  0  0
  1  3  1  0  0  0
  3  4  1  0  0  0
  4  5  1  0  0  0
  5  6  1  0  0  0
  6  7  2  0  0  0
  7  8  1  0  0  0
  7  9  1  0  0  0
  9 10  1  0  0  0
 10 11  2  0  0  0
 11 12  1  0  0  0
 11 13  1  0  0  0
 13 14  2  0  0  0
 14 15  1  0  0  0
 15 16  2  0  0  0
 16 17  1  0  0  0
 16 18  1  0  0  0
 18 19  2  0  0  0
  9 20  2  0  0  0
 20 21  1  0  0  0
 21 22  1  0  0  0
 22 23  2  0  0  0
 23 24  1  0  0  0
 24 25  2  0  0  0
  4 26  1  0  0  0
 26 27  1  0  0  0
 27 28  1  0  0  0
 28 29  1  0  0  0
 29 30  2  0  0  0
 29 31  1  0  0  0
 31 32  1  0  0  0
 32 33  1  0  0  0
 33 34  1  0  0  0
 34 35  1  0  0  0
 28  1  1  0  0  0
 35 31  1  0  0  0
 25  6  1  0  0  0
 19 13  1  0  0  0
 25 21  1  0  0  0
 12 36  1  0  0  0
M  END
>  <CHROM.0>
32.21689374,6.58950439,-46.41665108,61.17477204,31.75548234,167.25922763
78.57591325,170.46783596,-8.61664587

>  <CHROM.1>
70.22212631,-101.04107703,129.55030649,1.26019601,-2.68769539,169.21468008
11.77043389,-28.52386343,-2.79665560,-2.40390621,-0.41602109,0.07490875

>  <Name>

>  <RI>
1.24701e+07

>  <Rbt.Current_Directory>
/extra/banzai2/j5wagner/CELPP/2016_10_17_rdock_implementation/normal_run/tutorialVideo/tutorial_rdock_implementation/full_week_run/4-docking/5m96/hiTanimoto_5iz0_docking

>  <Rbt.Executable>
rbdock ($Id: //depot/dev/client3/rdock/2013.1/src/exe/rbdock.cxx#4 $)

>  <Rbt.Library>
libRbt.so (2013.1, Build901 2013/11/27)

>  <Rbt.Parameter_File>
/home/j5wagner/env_00/source/rDock/rDock_2013.1_src//data/scripts/dock.prm

>  <Rbt.Receptor>
/extra/banzai2/j5wagner/CELPP/2016_10_17_rdock_implementation/normal_run/tutorialVideo/tutorial_rdock_implementation/full_week_run/4-docking/5m96/hiTanimoto_5iz0_tech_prep/rDockGridGenInput.prm

>  <SCORE>
-30.6112

>  <SCORE.INTER>
-19.7085

>  <SCORE.INTER.CONST>
1

>  <SCORE.INTER.POLAR>
-0.89056

>  <SCORE.INTER.REPUL>
0

>  <SCORE.INTER.ROT>
5

>  <SCORE.INTER.VDW>
-27.0806

>  <SCORE.INTER.norm>
-0.563099

>  <SCORE.INTRA>
-1.61544

>  <SCORE.INTRA.DIHEDRAL>
-3.7989

>  <SCORE.INTRA.DIHEDRAL.0>
9.74364

>  <SCORE.INTRA.POLAR>
0

>  <SCORE.INTRA.POLAR.0>
0

>  <SCORE.INTRA.REPUL>
-0.108387

>  <SCORE.INTRA.REPUL.0>
0.108387

>  <SCORE.INTRA.VDW>
0.825947

>  <SCORE.INTRA.VDW.0>
-2.87247

>  <SCORE.INTRA.norm>
-0.0461554

>  <SCORE.RESTR>
0

>  <SCORE.RESTR.CAVITY>
0

>  <SCORE.RESTR.norm>
0

>  <SCORE.SYSTEM>
-9.28727

>  <SCORE.SYSTEM.CONST>
0

>  <SCORE.SYSTEM.DIHEDRAL>
5.58372

>  <SCORE.SYSTEM.POLAR>
-3.52874

>  <SCORE.SYSTEM.REPUL>
0.13538

>  <SCORE.SYSTEM.VDW>
-0.758299

>  <SCORE.SYSTEM.norm>
-0.26535

>  <SCORE.heavy>
35

>  <SCORE.norm>
-0.874605

$$$$
