
 OpenBabel12121610033D
libRbt.so/2013.1/901 2013/11/27
 14 14  0  0  1  0  0  0  0  0999 V2000
   30.6257   25.5551   24.2721 C   0  0  1  0  0  0  0  0  0  0  0  0
   30.7175   26.5261   23.2609 O   0  0  0  0  0  0  0  0  0  0  0  0
   29.2883   25.1278   24.4381 O   0  0  0  0  0  0  0  0  0  0  0  0
   29.2985   23.7185   24.5314 C   0  0  2  0  0  0  0  0  0  0  0  0
   28.4336   23.2641   25.7138 C   0  0  0  0  0  0  0  0  0  0  0  0
   28.6467   24.0942   26.8233 O   0  0  0  0  0  0  0  0  0  0  0  0
   30.7426   23.2436   24.6681 C   0  0  1  0  0  0  0  0  0  0  0  0
   30.9250   21.9971   24.0474 O   0  0  0  0  0  0  0  0  0  0  0  0
   31.5119   24.3467   23.9850 C   0  0  1  0  0  0  0  0  0  0  0  0
   31.6007   24.1157   22.5999 O   0  0  0  0  0  0  0  0  0  0  0  0
   30.1868   26.2000   22.4875 H   0  0  0  0  0  0  0  0  0  0  0  0
   29.5978   23.9806   27.0848 H   0  0  0  0  0  0  0  0  0  0  0  0
   31.8632   21.7284   24.2292 H   0  0  0  0  0  0  0  0  0  0  0  0
   30.6707   24.0195   22.2664 H   0  0  0  0  0  0  0  0  0  0  0  0
  1  2  1  6  0  0  0
  1  3  1  0  0  0  0
  2 11  1  0  0  0  0
  3  4  1  0  0  0  0
  4  5  1  1  0  0  0
  4  7  1  0  0  0  0
  5  6  1  0  0  0  0
  6 12  1  0  0  0  0
  7  8  1  6  0  0  0
  7  9  1  0  0  0  0
  8 13  1  0  0  0  0
  9 10  1  6  0  0  0
  9  1  1  0  0  0  0
 10 14  1  0  0  0  0
M  END
