
 OpenBabel12121609553D
libRbt.so/2013.1/901 2013/11/27
 14 14  0  0  1  0  0  0  0  0999 V2000
   30.5715   26.1877   23.1652 C   0  0  1  0  0  0  0  0  0  0  0  0
   30.7144   27.4874   22.6511 O   0  0  0  0  0  0  0  0  0  0  0  0
   31.8038   25.4956   23.1302 O   0  0  0  0  0  0  0  0  0  0  0  0
   31.9639   24.8449   24.3735 C   0  0  2  0  0  0  0  0  0  0  0  0
   32.3958   23.3898   24.1532 C   0  0  0  0  0  0  0  0  0  0  0  0
   31.3489   22.6493   23.5864 O   0  0  0  0  0  0  0  0  0  0  0  0
   30.6535   24.9373   25.1509 C   0  0  1  0  0  0  0  0  0  0  0  0
   30.8911   25.0220   26.5324 O   0  0  0  0  0  0  0  0  0  0  0  0
   30.0345   26.1947   24.5933 C   0  0  1  0  0  0  0  0  0  0  0  0
   30.4895   27.3307   25.2878 O   0  0  0  0  0  0  0  0  0  0  0  0
   29.8666   27.9723   22.8308 H   0  0  0  0  0  0  0  0  0  0  0  0
   30.6650   22.5340   24.2969 H   0  0  0  0  0  0  0  0  0  0  0  0
   31.2700   25.9248   26.6964 H   0  0  0  0  0  0  0  0  0  0  0  0
   30.0717   28.1184   24.8515 H   0  0  0  0  0  0  0  0  0  0  0  0
  1  2  1  1  0  0  0
  1  3  1  0  0  0  0
  2 11  1  0  0  0  0
  3  4  1  0  0  0  0
  4  5  1  6  0  0  0
  4  7  1  0  0  0  0
  5  6  1  0  0  0  0
  6 12  1  0  0  0  0
  7  8  1  1  0  0  0
  7  9  1  0  0  0  0
  8 13  1  0  0  0  0
  9 10  1  6  0  0  0
  9  1  1  0  0  0  0
 10 14  1  0  0  0  0
M  END
