
  rDOCK(R)          3D
libRbt.so/2013.1/901 2013/11/27
 14 14  0  0  0  0  0  0  0  0999 V2000
   29.9702   26.9333   23.1640 C   0  0  0  0  0  0
   30.9522   27.7387   23.7648 O   0  0  0  0  0  0
   29.8261   27.2546   21.7947 O   0  0  0  0  0  0
   29.7735   26.0410   21.0742 C   0  0  0  0  0  0
   28.6109   26.0735   20.0743 C   0  0  0  0  0  0
   27.3835   26.0906   20.7517 O   0  0  0  0  0  0
   29.6405   24.8857   22.0630 C   0  0  0  0  0  0
   30.2957   23.7376   21.5889 O   0  0  0  0  0  0
   30.2859   25.4473   23.3053 C   0  0  0  0  0  0
   31.6765   25.2330   23.2912 O   0  0  0  0  0  0
   31.7058   27.8161   23.1228 H   0  0  0  0  0  0
   27.2994   26.9895   21.1649 H   0  0  0  0  0  0
   31.2325   24.0073   21.4013 H   0  0  0  0  0  0
   31.8157   24.2556   23.3941 H   0  0  0  0  0  0
  1  2  1  0  0  0
  1  3  1  0  0  0
  3  4  1  0  0  0
  4  5  1  0  0  0
  5  6  1  0  0  0
  4  7  1  0  0  0
  7  8  1  0  0  0
  7  9  1  0  0  0
  9 10  1  0  0  0
  9  1  1  0  0  0
  2 11  1  0  0  0
  6 12  1  0  0  0
  8 13  1  0  0  0
 10 14  1  0  0  0
M  END
>  <CHROM.0>
-166.42551353,171.72104939,69.30357612,63.69185800,-8.57403161,71.27882082
-52.38813337

>  <CHROM.1>
-41.07023346,-67.01360558,71.31005797,55.14755751,179.50876392,29.86966361
25.94636464,22.09362331,0.35217507,-0.73663535,0.34164299

>  <RI>
2.0787e+07

>  <Rbt.Current_Directory>
/extra/banzai2/j5wagner/CELPP/2016_10_17_rdock_implementation/normal_run/tutorialVideo/tutorial_rdock_implementation/full_week_run/4-docking/5m93/LMCSS_1ogw_docking

>  <Rbt.Executable>
rbdock ($Id: //depot/dev/client3/rdock/2013.1/src/exe/rbdock.cxx#4 $)

>  <Rbt.Library>
libRbt.so (2013.1, Build901 2013/11/27)

>  <Rbt.Parameter_File>
/home/j5wagner/env_00/source/rDock/rDock_2013.1_src//data/scripts/dock.prm

>  <Rbt.Receptor>
/extra/banzai2/j5wagner/CELPP/2016_10_17_rdock_implementation/normal_run/tutorialVideo/tutorial_rdock_implementation/full_week_run/4-docking/5m93/LMCSS_1ogw_tech_prep/rDockGridGenInput.prm

>  <SCORE>
-27.0822

>  <SCORE.INTER>
-16.2051

>  <SCORE.INTER.CONST>
1

>  <SCORE.INTER.POLAR>
-3.52946

>  <SCORE.INTER.REPUL>
0.0108353

>  <SCORE.INTER.ROT>
1

>  <SCORE.INTER.VDW>
-10.6592

>  <SCORE.INTER.norm>
-1.62051

>  <SCORE.INTRA>
-0.694493

>  <SCORE.INTRA.DIHEDRAL>
-2.14626

>  <SCORE.INTRA.DIHEDRAL.0>
5.02738

>  <SCORE.INTRA.POLAR>
0

>  <SCORE.INTRA.POLAR.0>
0

>  <SCORE.INTRA.REPUL>
0

>  <SCORE.INTRA.REPUL.0>
0

>  <SCORE.INTRA.VDW>
0.378639

>  <SCORE.INTRA.VDW.0>
-0.709724

>  <SCORE.INTRA.norm>
-0.0694493

>  <SCORE.RESTR>
0.042137

>  <SCORE.RESTR.CAVITY>
0.042137

>  <SCORE.RESTR.norm>
0.0042137

>  <SCORE.SYSTEM>
-10.2247

>  <SCORE.SYSTEM.CONST>
0

>  <SCORE.SYSTEM.DIHEDRAL>
2.01537

>  <SCORE.SYSTEM.POLAR>
-3.23724

>  <SCORE.SYSTEM.REPUL>
0.0285879

>  <SCORE.SYSTEM.VDW>
-0.368708

>  <SCORE.SYSTEM.norm>
-1.02247

>  <SCORE.heavy>
10

>  <SCORE.norm>
-2.70822

$$$$

  rDOCK(R)          3D
libRbt.so/2013.1/901 2013/11/27
 14 14  0  0  0  0  0  0  0  0999 V2000
   29.9922   26.9710   23.1627 C   0  0  0  0  0  0
   30.9718   27.7937   23.7437 O   0  0  0  0  0  0
   29.8153   27.2888   21.7965 O   0  0  0  0  0  0
   29.7696   26.0739   21.0776 C   0  0  0  0  0  0
   28.5869   26.0855   20.1011 C   0  0  0  0  0  0
   27.3733   26.0995   20.8028 O   0  0  0  0  0  0
   29.6765   24.9172   22.0692 C   0  0  0  0  0  0
   30.3421   23.7804   21.5826 O   0  0  0  0  0  0
   30.3366   25.4908   23.2982 C   0  0  0  0  0  0
   31.7302   25.3008   23.2565 O   0  0  0  0  0  0
   31.7397   27.8299   23.1150 H   0  0  0  0  0  0
   27.3016   26.9934   21.2289 H   0  0  0  0  0  0
   31.3028   24.0229   21.5220 H   0  0  0  0  0  0
   32.1011   25.7281   24.0721 H   0  0  0  0  0  0
  1  2  1  0  0  0
  1  3  1  0  0  0
  3  4  1  0  0  0
  4  5  1  0  0  0
  5  6  1  0  0  0
  4  7  1  0  0  0
  7  8  1  0  0  0
  7  9  1  0  0  0
  9 10  1  0  0  0
  9  1  1  0  0  0
  2 11  1  0  0  0
  6 12  1  0  0  0
  8 13  1  0  0  0
 10 14  1  0  0  0
M  END
>  <CHROM.0>
-46.90256680,-56.03947574,69.20419187,-55.91557261,-9.64871986,71.08808510
174.26349188

>  <CHROM.1>
-45.13858374,-66.23716520,69.76338045,64.51571284,66.22116243,29.88967880
25.99243112,22.10097182,0.37288419,-0.71249789,0.35035125

>  <RI>
2.0787e+07

>  <Rbt.Current_Directory>
/extra/banzai2/j5wagner/CELPP/2016_10_17_rdock_implementation/normal_run/tutorialVideo/tutorial_rdock_implementation/full_week_run/4-docking/5m93/LMCSS_1ogw_docking

>  <Rbt.Executable>
rbdock ($Id: //depot/dev/client3/rdock/2013.1/src/exe/rbdock.cxx#4 $)

>  <Rbt.Library>
libRbt.so (2013.1, Build901 2013/11/27)

>  <Rbt.Parameter_File>
/home/j5wagner/env_00/source/rDock/rDock_2013.1_src//data/scripts/dock.prm

>  <Rbt.Receptor>
/extra/banzai2/j5wagner/CELPP/2016_10_17_rdock_implementation/normal_run/tutorialVideo/tutorial_rdock_implementation/full_week_run/4-docking/5m93/LMCSS_1ogw_tech_prep/rDockGridGenInput.prm

>  <SCORE>
-26.9768

>  <SCORE.INTER>
-15.7774

>  <SCORE.INTER.CONST>
1

>  <SCORE.INTER.POLAR>
-3.39272

>  <SCORE.INTER.REPUL>
0

>  <SCORE.INTER.ROT>
1

>  <SCORE.INTER.VDW>
-10.6422

>  <SCORE.INTER.norm>
-1.57774

>  <SCORE.INTRA>
-1.40665

>  <SCORE.INTRA.DIHEDRAL>
-2.7631

>  <SCORE.INTRA.DIHEDRAL.0>
5.02738

>  <SCORE.INTRA.POLAR>
-0.111014

>  <SCORE.INTRA.POLAR.0>
0

>  <SCORE.INTRA.REPUL>
0

>  <SCORE.INTRA.REPUL.0>
0

>  <SCORE.INTRA.VDW>
0.352345

>  <SCORE.INTRA.VDW.0>
-0.709724

>  <SCORE.INTRA.norm>
-0.140665

>  <SCORE.RESTR>
0.0627332

>  <SCORE.RESTR.CAVITY>
0.0627332

>  <SCORE.RESTR.norm>
0.00627332

>  <SCORE.SYSTEM>
-9.85545

>  <SCORE.SYSTEM.CONST>
0

>  <SCORE.SYSTEM.DIHEDRAL>
1.62143

>  <SCORE.SYSTEM.POLAR>
-3.25459

>  <SCORE.SYSTEM.REPUL>
0.0314385

>  <SCORE.SYSTEM.VDW>
0.242248

>  <SCORE.SYSTEM.norm>
-0.985545

>  <SCORE.heavy>
10

>  <SCORE.norm>
-2.69768

$$$$

  rDOCK(R)          3D
libRbt.so/2013.1/901 2013/11/27
 14 14  0  0  0  0  0  0  0  0999 V2000
   29.9904   26.9800   23.1675 C   0  0  0  0  0  0
   30.9717   27.8059   23.7410 O   0  0  0  0  0  0
   29.8096   27.2901   21.8000 O   0  0  0  0  0  0
   29.7617   26.0712   21.0882 C   0  0  0  0  0  0
   28.5763   26.0774   20.1149 C   0  0  0  0  0  0
   27.3647   26.1005   20.8199 O   0  0  0  0  0  0
   29.6713   24.9201   22.0865 C   0  0  0  0  0  0
   30.3354   23.7805   21.6044 O   0  0  0  0  0  0
   30.3349   25.5006   23.3104 C   0  0  0  0  0  0
   31.7284   25.3101   23.2658 O   0  0  0  0  0  0
   31.7242   27.8644   23.0957 H   0  0  0  0  0  0
   27.2919   27.0016   21.2306 H   0  0  0  0  0  0
   31.2957   24.0231   21.5381 H   0  0  0  0  0  0
   32.1004   25.7319   24.0837 H   0  0  0  0  0  0
  1  2  1  0  0  0
  1  3  1  0  0  0
  3  4  1  0  0  0
  4  5  1  0  0  0
  5  6  1  0  0  0
  4  7  1  0  0  0
  7  8  1  0  0  0
  7  9  1  0  0  0
  9 10  1  0  0  0
  9  1  1  0  0  0
  2 11  1  0  0  0
  6 12  1  0  0  0
  8 13  1  0  0  0
 10 14  1  0  0  0
M  END
>  <CHROM.0>
-162.76712120,171.18798970,-52.11605590,61.09994004,-10.31286933,-171.86948943
63.94483252

>  <CHROM.1>
-43.16729619,-66.01951476,70.35404975,64.41295613,66.92853398,29.88458930
25.99620072,22.11147098,0.37026095,-0.71015106,0.34385205

>  <RI>
2.0787e+07

>  <Rbt.Current_Directory>
/extra/banzai2/j5wagner/CELPP/2016_10_17_rdock_implementation/normal_run/tutorialVideo/tutorial_rdock_implementation/full_week_run/4-docking/5m93/LMCSS_1ogw_docking

>  <Rbt.Executable>
rbdock ($Id: //depot/dev/client3/rdock/2013.1/src/exe/rbdock.cxx#4 $)

>  <Rbt.Library>
libRbt.so (2013.1, Build901 2013/11/27)

>  <Rbt.Parameter_File>
/home/j5wagner/env_00/source/rDock/rDock_2013.1_src//data/scripts/dock.prm

>  <Rbt.Receptor>
/extra/banzai2/j5wagner/CELPP/2016_10_17_rdock_implementation/normal_run/tutorialVideo/tutorial_rdock_implementation/full_week_run/4-docking/5m93/LMCSS_1ogw_tech_prep/rDockGridGenInput.prm

>  <SCORE>
-26.7039

>  <SCORE.INTER>
-16.1864

>  <SCORE.INTER.CONST>
1

>  <SCORE.INTER.POLAR>
-3.47949

>  <SCORE.INTER.REPUL>
0

>  <SCORE.INTER.ROT>
1

>  <SCORE.INTER.VDW>
-10.7562

>  <SCORE.INTER.norm>
-1.61864

>  <SCORE.INTRA>
-1.24016

>  <SCORE.INTRA.DIHEDRAL>
-2.40627

>  <SCORE.INTRA.DIHEDRAL.0>
5.02738

>  <SCORE.INTRA.POLAR>
-0.109484

>  <SCORE.INTRA.POLAR.0>
0

>  <SCORE.INTRA.REPUL>
0

>  <SCORE.INTRA.REPUL.0>
0

>  <SCORE.INTRA.VDW>
0.335214

>  <SCORE.INTRA.VDW.0>
-0.709724

>  <SCORE.INTRA.norm>
-0.124016

>  <SCORE.RESTR>
0.0620247

>  <SCORE.RESTR.CAVITY>
0.0620247

>  <SCORE.RESTR.norm>
0.00620247

>  <SCORE.SYSTEM>
-9.33936

>  <SCORE.SYSTEM.CONST>
0

>  <SCORE.SYSTEM.DIHEDRAL>
1.77135

>  <SCORE.SYSTEM.POLAR>
-2.71323

>  <SCORE.SYSTEM.REPUL>
0.0566781

>  <SCORE.SYSTEM.VDW>
-1.28343

>  <SCORE.SYSTEM.norm>
-0.933936

>  <SCORE.heavy>
10

>  <SCORE.norm>
-2.67039

$$$$

  rDOCK(R)          3D
libRbt.so/2013.1/901 2013/11/27
 14 14  0  0  0  0  0  0  0  0999 V2000
   30.0560   27.2092   23.2666 C   0  0  0  0  0  0
   31.0226   28.1132   23.7382 O   0  0  0  0  0  0
   29.9300   27.2968   21.8611 O   0  0  0  0  0  0
   29.8976   25.9798   21.3521 C   0  0  0  0  0  0
   28.7499   25.8338   20.3451 C   0  0  0  0  0  0
   27.5170   26.0623   20.9722 O   0  0  0  0  0  0
   29.7588   25.0038   22.5174 C   0  0  0  0  0  0
   30.4300   23.7995   22.2500 O   0  0  0  0  0  0
   30.3811   25.7707   23.6575 C   0  0  0  0  0  0
   31.7734   25.5712   23.6980 O   0  0  0  0  0  0
   31.7993   28.0657   23.1212 H   0  0  0  0  0  0
   27.4877   27.0288   21.1979 H   0  0  0  0  0  0
   30.3708   23.2561   23.0786 H   0  0  0  0  0  0
   31.9186   24.6249   23.9604 H   0  0  0  0  0  0
  1  2  1  0  0  0
  1  3  1  0  0  0
  3  4  1  0  0  0
  4  5  1  0  0  0
  5  6  1  0  0  0
  4  7  1  0  0  0
  7  8  1  0  0  0
  7  9  1  0  0  0
  9 10  1  0  0  0
  9  1  1  0  0  0
  2 11  1  0  0  0
  6 12  1  0  0  0
  8 13  1  0  0  0
 10 14  1  0  0  0
M  END
>  <CHROM.0>
76.65220089,171.23922046,-70.11105078,-57.21637260,-12.04454519,71.92484456
63.85373787

>  <CHROM.1>
-43.13039390,-62.05703273,69.14309866,174.63947352,179.73855079,29.97363323
26.06426579,22.37868550,0.32840789,-0.75963839,0.16737955

>  <RI>
2.0787e+07

>  <Rbt.Current_Directory>
/extra/banzai2/j5wagner/CELPP/2016_10_17_rdock_implementation/normal_run/tutorialVideo/tutorial_rdock_implementation/full_week_run/4-docking/5m93/LMCSS_1ogw_docking

>  <Rbt.Executable>
rbdock ($Id: //depot/dev/client3/rdock/2013.1/src/exe/rbdock.cxx#4 $)

>  <Rbt.Library>
libRbt.so (2013.1, Build901 2013/11/27)

>  <Rbt.Parameter_File>
/home/j5wagner/env_00/source/rDock/rDock_2013.1_src//data/scripts/dock.prm

>  <Rbt.Receptor>
/extra/banzai2/j5wagner/CELPP/2016_10_17_rdock_implementation/normal_run/tutorialVideo/tutorial_rdock_implementation/full_week_run/4-docking/5m93/LMCSS_1ogw_tech_prep/rDockGridGenInput.prm

>  <SCORE>
-25.9897

>  <SCORE.INTER>
-15.1606

>  <SCORE.INTER.CONST>
1

>  <SCORE.INTER.POLAR>
-3.57689

>  <SCORE.INTER.REPUL>
0.231092

>  <SCORE.INTER.ROT>
1

>  <SCORE.INTER.VDW>
-10.5547

>  <SCORE.INTER.norm>
-1.51606

>  <SCORE.INTRA>
-1.29919

>  <SCORE.INTRA.DIHEDRAL>
-2.80429

>  <SCORE.INTRA.DIHEDRAL.0>
5.02738

>  <SCORE.INTRA.POLAR>
0

>  <SCORE.INTRA.POLAR.0>
0

>  <SCORE.INTRA.REPUL>
0

>  <SCORE.INTRA.REPUL.0>
0

>  <SCORE.INTRA.VDW>
0.102951

>  <SCORE.INTRA.VDW.0>
-0.709724

>  <SCORE.INTRA.norm>
-0.129919

>  <SCORE.RESTR>
0.211457

>  <SCORE.RESTR.CAVITY>
0.211457

>  <SCORE.RESTR.norm>
0.0211457

>  <SCORE.SYSTEM>
-9.74135

>  <SCORE.SYSTEM.CONST>
0

>  <SCORE.SYSTEM.DIHEDRAL>
2.24544

>  <SCORE.SYSTEM.POLAR>
-2.82005

>  <SCORE.SYSTEM.REPUL>
0.0345955

>  <SCORE.SYSTEM.VDW>
-1.4489

>  <SCORE.SYSTEM.norm>
-0.974135

>  <SCORE.heavy>
10

>  <SCORE.norm>
-2.59897

$$$$

  rDOCK(R)          3D
libRbt.so/2013.1/901 2013/11/27
 14 14  0  0  0  0  0  0  0  0999 V2000
   30.0656   27.2121   23.2857 C   0  0  0  0  0  0
   31.0182   28.1399   23.7395 O   0  0  0  0  0  0
   29.9345   27.2741   21.8794 O   0  0  0  0  0  0
   29.9229   25.9484   21.3925 C   0  0  0  0  0  0
   28.7751   25.7664   20.3914 C   0  0  0  0  0  0
   27.5415   26.0063   21.0127 O   0  0  0  0  0  0
   29.8034   24.9898   22.5744 C   0  0  0  0  0  0
   30.4939   23.7926   22.3251 O   0  0  0  0  0  0
   30.4157   25.7860   23.6997 C   0  0  0  0  0  0
   31.8113   25.6104   23.7395 O   0  0  0  0  0  0
   31.8103   28.0665   23.1450 H   0  0  0  0  0  0
   27.5128   26.9764   21.2226 H   0  0  0  0  0  0
   30.4308   23.2546   23.1570 H   0  0  0  0  0  0
   31.9728   24.6663   24.0004 H   0  0  0  0  0  0
  1  2  1  0  0  0
  1  3  1  0  0  0
  3  4  1  0  0  0
  4  5  1  0  0  0
  5  6  1  0  0  0
  4  7  1  0  0  0
  7  8  1  0  0  0
  7  9  1  0  0  0
  9 10  1  0  0  0
  9  1  1  0  0  0
  2 11  1  0  0  0
  6 12  1  0  0  0
  8 13  1  0  0  0
 10 14  1  0  0  0
M  END
>  <CHROM.0>
73.62049579,172.15982878,46.62094047,-56.24033069,-173.35150149,74.06976560
174.60196149

>  <CHROM.1>
-45.58570643,-61.09091680,68.29241834,175.71857535,-179.20225519,30.00033980
26.05343988,22.41670886,0.34607733,-0.75482931,0.16752691

>  <RI>
2.0787e+07

>  <Rbt.Current_Directory>
/extra/banzai2/j5wagner/CELPP/2016_10_17_rdock_implementation/normal_run/tutorialVideo/tutorial_rdock_implementation/full_week_run/4-docking/5m93/LMCSS_1ogw_docking

>  <Rbt.Executable>
rbdock ($Id: //depot/dev/client3/rdock/2013.1/src/exe/rbdock.cxx#4 $)

>  <Rbt.Library>
libRbt.so (2013.1, Build901 2013/11/27)

>  <Rbt.Parameter_File>
/home/j5wagner/env_00/source/rDock/rDock_2013.1_src//data/scripts/dock.prm

>  <Rbt.Receptor>
/extra/banzai2/j5wagner/CELPP/2016_10_17_rdock_implementation/normal_run/tutorialVideo/tutorial_rdock_implementation/full_week_run/4-docking/5m93/LMCSS_1ogw_tech_prep/rDockGridGenInput.prm

>  <SCORE>
-25.8437

>  <SCORE.INTER>
-14.9637

>  <SCORE.INTER.CONST>
1

>  <SCORE.INTER.POLAR>
-3.48172

>  <SCORE.INTER.REPUL>
0.283782

>  <SCORE.INTER.ROT>
1

>  <SCORE.INTER.VDW>
-10.9448

>  <SCORE.INTER.norm>
-1.49637

>  <SCORE.INTRA>
-1.52932

>  <SCORE.INTRA.DIHEDRAL>
-3.26887

>  <SCORE.INTRA.DIHEDRAL.0>
5.02738

>  <SCORE.INTRA.POLAR>
0

>  <SCORE.INTRA.POLAR.0>
0

>  <SCORE.INTRA.REPUL>
0

>  <SCORE.INTRA.REPUL.0>
0

>  <SCORE.INTRA.VDW>
0.105116

>  <SCORE.INTRA.VDW.0>
-0.709724

>  <SCORE.INTRA.norm>
-0.152932

>  <SCORE.RESTR>
0.212976

>  <SCORE.RESTR.CAVITY>
0.212976

>  <SCORE.RESTR.norm>
0.0212976

>  <SCORE.SYSTEM>
-9.56363

>  <SCORE.SYSTEM.CONST>
0

>  <SCORE.SYSTEM.DIHEDRAL>
2.34349

>  <SCORE.SYSTEM.POLAR>
-3.03584

>  <SCORE.SYSTEM.REPUL>
0.000978727

>  <SCORE.SYSTEM.VDW>
-0.418405

>  <SCORE.SYSTEM.norm>
-0.956363

>  <SCORE.heavy>
10

>  <SCORE.norm>
-2.58437

$$$$

  rDOCK(R)          3D
libRbt.so/2013.1/901 2013/11/27
 14 14  0  0  0  0  0  0  0  0999 V2000
   29.8401   26.6508   23.2053 C   0  0  0  0  0  0
   30.7780   27.3878   23.9477 O   0  0  0  0  0  0
   29.7012   27.1825   21.9027 O   0  0  0  0  0  0
   29.7111   26.0997   20.9959 C   0  0  0  0  0  0
   28.5620   26.2459   19.9905 C   0  0  0  0  0  0
   27.3254   26.1346   20.6414 O   0  0  0  0  0  0
   29.6145   24.7958   21.7835 C   0  0  0  0  0  0
   30.3252   23.7665   21.1449 O   0  0  0  0  0  0
   30.2178   25.1754   23.1129 C   0  0  0  0  0  0
   31.6164   25.0226   23.0931 O   0  0  0  0  0  0
   30.4644   28.3297   23.9702 H   0  0  0  0  0  0
   27.2148   26.9584   21.1846 H   0  0  0  0  0  0
   31.2856   24.0104   21.2051 H   0  0  0  0  0  0
   31.9530   25.3628   23.9628 H   0  0  0  0  0  0
  1  2  1  0  0  0
  1  3  1  0  0  0
  3  4  1  0  0  0
  4  5  1  0  0  0
  5  6  1  0  0  0
  4  7  1  0  0  0
  7  8  1  0  0  0
  7  9  1  0  0  0
  9 10  1  0  0  0
  9  1  1  0  0  0
  2 11  1  0  0  0
  6 12  1  0  0  0
  8 13  1  0  0  0
 10 14  1  0  0  0
M  END
>  <CHROM.0>
-42.79056805,172.24095336,71.74410877,60.98607761,-11.60388616,-172.62573486
63.29904408

>  <CHROM.1>
57.98048974,-65.65760735,70.75333934,67.59816015,63.38069382,29.79129077
25.86263458,22.00079836,0.43669011,-0.73781317,0.55460339

>  <RI>
2.0787e+07

>  <Rbt.Current_Directory>
/extra/banzai2/j5wagner/CELPP/2016_10_17_rdock_implementation/normal_run/tutorialVideo/tutorial_rdock_implementation/full_week_run/4-docking/5m93/LMCSS_1ogw_docking

>  <Rbt.Executable>
rbdock ($Id: //depot/dev/client3/rdock/2013.1/src/exe/rbdock.cxx#4 $)

>  <Rbt.Library>
libRbt.so (2013.1, Build901 2013/11/27)

>  <Rbt.Parameter_File>
/home/j5wagner/env_00/source/rDock/rDock_2013.1_src//data/scripts/dock.prm

>  <Rbt.Receptor>
/extra/banzai2/j5wagner/CELPP/2016_10_17_rdock_implementation/normal_run/tutorialVideo/tutorial_rdock_implementation/full_week_run/4-docking/5m93/LMCSS_1ogw_tech_prep/rDockGridGenInput.prm

>  <SCORE>
-25.7523

>  <SCORE.INTER>
-13.6593

>  <SCORE.INTER.CONST>
1

>  <SCORE.INTER.POLAR>
-3.27115

>  <SCORE.INTER.REPUL>
0

>  <SCORE.INTER.ROT>
1

>  <SCORE.INTER.VDW>
-8.93744

>  <SCORE.INTER.norm>
-1.36593

>  <SCORE.INTRA>
-1.93686

>  <SCORE.INTRA.DIHEDRAL>
-3.65236

>  <SCORE.INTRA.DIHEDRAL.0>
5.02738

>  <SCORE.INTRA.POLAR>
-0.158959

>  <SCORE.INTRA.POLAR.0>
0

>  <SCORE.INTRA.REPUL>
0

>  <SCORE.INTRA.REPUL.0>
0

>  <SCORE.INTRA.VDW>
0.429783

>  <SCORE.INTRA.VDW.0>
-0.709724

>  <SCORE.INTRA.norm>
-0.193686

>  <SCORE.RESTR>
0.0121412

>  <SCORE.RESTR.CAVITY>
0.0121412

>  <SCORE.RESTR.norm>
0.00121412

>  <SCORE.SYSTEM>
-10.1682

>  <SCORE.SYSTEM.CONST>
0

>  <SCORE.SYSTEM.DIHEDRAL>
1.82532

>  <SCORE.SYSTEM.POLAR>
-3.00206

>  <SCORE.SYSTEM.REPUL>
0.0620586

>  <SCORE.SYSTEM.VDW>
-1.18419

>  <SCORE.SYSTEM.norm>
-1.01682

>  <SCORE.heavy>
10

>  <SCORE.norm>
-2.57523

$$$$

  rDOCK(R)          3D
libRbt.so/2013.1/901 2013/11/27
 14 14  0  0  0  0  0  0  0  0999 V2000
   30.0564   27.2193   23.2742 C   0  0  0  0  0  0
   31.0157   28.1300   23.7477 O   0  0  0  0  0  0
   29.9189   27.3192   21.8706 O   0  0  0  0  0  0
   29.8984   26.0069   21.3488 C   0  0  0  0  0  0
   28.7450   25.8571   20.3489 C   0  0  0  0  0  0
   27.5124   26.0270   20.9949 O   0  0  0  0  0  0
   29.7798   25.0179   22.5055 C   0  0  0  0  0  0
   30.4632   23.8244   22.2212 O   0  0  0  0  0  0
   30.4014   25.7810   23.6485 C   0  0  0  0  0  0
   31.7962   25.5977   23.6768 O   0  0  0  0  0  0
   31.7934   28.0888   23.1316 H   0  0  0  0  0  0
   27.4451   26.9893   21.2302 H   0  0  0  0  0  0
   30.4084   23.2682   23.0416 H   0  0  0  0  0  0
   31.9540   24.6386   23.8787 H   0  0  0  0  0  0
  1  2  1  0  0  0
  1  3  1  0  0  0
  3  4  1  0  0  0
  4  5  1  0  0  0
  5  6  1  0  0  0
  4  7  1  0  0  0
  7  8  1  0  0  0
  7  9  1  0  0  0
  9 10  1  0  0  0
  9  1  1  0  0  0
  2 11  1  0  0  0
  6 12  1  0  0  0
  8 13  1  0  0  0
 10 14  1  0  0  0
M  END
>  <CHROM.0>
-166.29919296,171.51795437,-71.30907027,-56.34532906,172.11673373,71.97145571
174.05098840

>  <CHROM.1>
-43.88774396,-63.73848613,70.61364474,175.21963231,-177.16115299,29.98056323
26.07773254,22.37621180,0.35149653,-0.74864970,0.18481540

>  <RI>
2.0787e+07

>  <Rbt.Current_Directory>
/extra/banzai2/j5wagner/CELPP/2016_10_17_rdock_implementation/normal_run/tutorialVideo/tutorial_rdock_implementation/full_week_run/4-docking/5m93/LMCSS_1ogw_docking

>  <Rbt.Executable>
rbdock ($Id: //depot/dev/client3/rdock/2013.1/src/exe/rbdock.cxx#4 $)

>  <Rbt.Library>
libRbt.so (2013.1, Build901 2013/11/27)

>  <Rbt.Parameter_File>
/home/j5wagner/env_00/source/rDock/rDock_2013.1_src//data/scripts/dock.prm

>  <Rbt.Receptor>
/extra/banzai2/j5wagner/CELPP/2016_10_17_rdock_implementation/normal_run/tutorialVideo/tutorial_rdock_implementation/full_week_run/4-docking/5m93/LMCSS_1ogw_tech_prep/rDockGridGenInput.prm

>  <SCORE>
-25.2723

>  <SCORE.INTER>
-15.1643

>  <SCORE.INTER.CONST>
1

>  <SCORE.INTER.POLAR>
-3.58238

>  <SCORE.INTER.REPUL>
0.271341

>  <SCORE.INTER.ROT>
1

>  <SCORE.INTER.VDW>
-10.7409

>  <SCORE.INTER.norm>
-1.51643

>  <SCORE.INTRA>
-1.23582

>  <SCORE.INTRA.DIHEDRAL>
-2.73033

>  <SCORE.INTRA.DIHEDRAL.0>
5.02738

>  <SCORE.INTRA.POLAR>
0

>  <SCORE.INTRA.POLAR.0>
0

>  <SCORE.INTRA.REPUL>
0

>  <SCORE.INTRA.REPUL.0>
0

>  <SCORE.INTRA.VDW>
0.129344

>  <SCORE.INTRA.VDW.0>
-0.709724

>  <SCORE.INTRA.norm>
-0.123582

>  <SCORE.RESTR>
0.196359

>  <SCORE.RESTR.CAVITY>
0.196359

>  <SCORE.RESTR.norm>
0.0196359

>  <SCORE.SYSTEM>
-9.06858

>  <SCORE.SYSTEM.CONST>
0

>  <SCORE.SYSTEM.DIHEDRAL>
2.08514

>  <SCORE.SYSTEM.POLAR>
-2.8246

>  <SCORE.SYSTEM.REPUL>
0.00096514

>  <SCORE.SYSTEM.VDW>
-0.512332

>  <SCORE.SYSTEM.norm>
-0.906858

>  <SCORE.heavy>
10

>  <SCORE.norm>
-2.52723

$$$$

  rDOCK(R)          3D
libRbt.so/2013.1/901 2013/11/27
 14 14  0  0  0  0  0  0  0  0999 V2000
   30.0725   27.2128   23.2712 C   0  0  0  0  0  0
   31.0141   28.1393   23.7498 O   0  0  0  0  0  0
   29.9431   27.3084   21.8665 O   0  0  0  0  0  0
   29.9469   25.9952   21.3467 C   0  0  0  0  0  0
   28.8030   25.8258   20.3391 C   0  0  0  0  0  0
   27.5666   26.0522   20.9600 O   0  0  0  0  0  0
   29.8358   25.0062   22.5041 C   0  0  0  0  0  0
   30.5398   23.8232   22.2264 O   0  0  0  0  0  0
   30.4374   25.7807   23.6502 C   0  0  0  0  0  0
   31.8347   25.6194   23.6884 O   0  0  0  0  0  0
   31.8124   28.0814   23.1620 H   0  0  0  0  0  0
   27.5288   27.0212   21.1733 H   0  0  0  0  0  0
   30.4990   23.2730   23.0517 H   0  0  0  0  0  0
   32.0063   24.6824   23.9675 H   0  0  0  0  0  0
  1  2  1  0  0  0
  1  3  1  0  0  0
  3  4  1  0  0  0
  4  5  1  0  0  0
  5  6  1  0  0  0
  4  7  1  0  0  0
  7  8  1  0  0  0
  7  9  1  0  0  0
  9 10  1  0  0  0
  9  1  1  0  0  0
  2 11  1  0  0  0
  6 12  1  0  0  0
  8 13  1  0  0  0
 10 14  1  0  0  0
M  END
>  <CHROM.0>
72.08751771,170.76922899,165.41318679,-179.00621884,173.27333589,70.51458383
61.45627497

>  <CHROM.1>
-46.26910330,-60.39328426,69.09337748,174.44046286,178.19727280,30.02165986
26.07740654,22.37320710,0.35682381,-0.75554309,0.20386811

>  <RI>
2.0787e+07

>  <Rbt.Current_Directory>
/extra/banzai2/j5wagner/CELPP/2016_10_17_rdock_implementation/normal_run/tutorialVideo/tutorial_rdock_implementation/full_week_run/4-docking/5m93/LMCSS_1ogw_docking

>  <Rbt.Executable>
rbdock ($Id: //depot/dev/client3/rdock/2013.1/src/exe/rbdock.cxx#4 $)

>  <Rbt.Library>
libRbt.so (2013.1, Build901 2013/11/27)

>  <Rbt.Parameter_File>
/home/j5wagner/env_00/source/rDock/rDock_2013.1_src//data/scripts/dock.prm

>  <Rbt.Receptor>
/extra/banzai2/j5wagner/CELPP/2016_10_17_rdock_implementation/normal_run/tutorialVideo/tutorial_rdock_implementation/full_week_run/4-docking/5m93/LMCSS_1ogw_tech_prep/rDockGridGenInput.prm

>  <SCORE>
-25.0475

>  <SCORE.INTER>
-14.9905

>  <SCORE.INTER.CONST>
1

>  <SCORE.INTER.POLAR>
-3.52339

>  <SCORE.INTER.REPUL>
0.319694

>  <SCORE.INTER.ROT>
1

>  <SCORE.INTER.VDW>
-11.0095

>  <SCORE.INTER.norm>
-1.49905

>  <SCORE.INTRA>
-1.51655

>  <SCORE.INTRA.DIHEDRAL>
-3.22106

>  <SCORE.INTRA.DIHEDRAL.0>
5.02738

>  <SCORE.INTRA.POLAR>
0

>  <SCORE.INTRA.POLAR.0>
0

>  <SCORE.INTRA.REPUL>
0

>  <SCORE.INTRA.REPUL.0>
0

>  <SCORE.INTRA.VDW>
0.0939826

>  <SCORE.INTRA.VDW.0>
-0.709724

>  <SCORE.INTRA.norm>
-0.151655

>  <SCORE.RESTR>
0.202218

>  <SCORE.RESTR.CAVITY>
0.202218

>  <SCORE.RESTR.norm>
0.0202218

>  <SCORE.SYSTEM>
-8.74261

>  <SCORE.SYSTEM.CONST>
0

>  <SCORE.SYSTEM.DIHEDRAL>
1.87664

>  <SCORE.SYSTEM.POLAR>
-2.53067

>  <SCORE.SYSTEM.VDW>
-1.07666

>  <SCORE.SYSTEM.norm>
-0.874261

>  <SCORE.heavy>
10

>  <SCORE.norm>
-2.50475

$$$$

  rDOCK(R)          3D
libRbt.so/2013.1/901 2013/11/27
 14 14  0  0  0  0  0  0  0  0999 V2000
   30.0603   27.1983   23.2782 C   0  0  0  0  0  0
   31.0186   28.1158   23.7407 O   0  0  0  0  0  0
   29.9214   27.2823   21.8737 O   0  0  0  0  0  0
   29.9026   25.9643   21.3665 C   0  0  0  0  0  0
   28.7486   25.8015   20.3693 C   0  0  0  0  0  0
   27.5208   26.0558   20.9964 O   0  0  0  0  0  0
   29.7867   24.9881   22.5341 C   0  0  0  0  0  0
   30.4718   23.7926   22.2625 O   0  0  0  0  0  0
   30.4081   25.7648   23.6681 C   0  0  0  0  0  0
   31.8032   25.5841   23.6972 O   0  0  0  0  0  0
   31.7970   28.0669   23.1259 H   0  0  0  0  0  0
   27.5051   27.0259   21.2080 H   0  0  0  0  0  0
   30.4404   23.2561   23.0972 H   0  0  0  0  0  0
   31.9629   24.6326   23.9309 H   0  0  0  0  0  0
  1  2  1  0  0  0
  1  3  1  0  0  0
  3  4  1  0  0  0
  4  5  1  0  0  0
  5  6  1  0  0  0
  4  7  1  0  0  0
  7  8  1  0  0  0
  7  9  1  0  0  0
  9 10  1  0  0  0
  9  1  1  0  0  0
  2 11  1  0  0  0
  6 12  1  0  0  0
  8 13  1  0  0  0
 10 14  1  0  0  0
M  END
>  <CHROM.0>
75.11009484,171.16779789,167.92520665,179.95196129,-156.67877693,71.68748029
62.04352763

>  <CHROM.1>
-44.06200144,-60.18782192,68.42279308,173.68677320,-178.48186236,29.98661416
26.05581186,22.39102929,0.33546040,-0.75055097,0.18047523

>  <RI>
2.0787e+07

>  <Rbt.Current_Directory>
/extra/banzai2/j5wagner/CELPP/2016_10_17_rdock_implementation/normal_run/tutorialVideo/tutorial_rdock_implementation/full_week_run/4-docking/5m93/LMCSS_1ogw_docking

>  <Rbt.Executable>
rbdock ($Id: //depot/dev/client3/rdock/2013.1/src/exe/rbdock.cxx#4 $)

>  <Rbt.Library>
libRbt.so (2013.1, Build901 2013/11/27)

>  <Rbt.Parameter_File>
/home/j5wagner/env_00/source/rDock/rDock_2013.1_src//data/scripts/dock.prm

>  <Rbt.Receptor>
/extra/banzai2/j5wagner/CELPP/2016_10_17_rdock_implementation/normal_run/tutorialVideo/tutorial_rdock_implementation/full_week_run/4-docking/5m93/LMCSS_1ogw_tech_prep/rDockGridGenInput.prm

>  <SCORE>
-24.979

>  <SCORE.INTER>
-15.1348

>  <SCORE.INTER.CONST>
1

>  <SCORE.INTER.POLAR>
-3.50857

>  <SCORE.INTER.REPUL>
0.26227

>  <SCORE.INTER.ROT>
1

>  <SCORE.INTER.VDW>
-10.917

>  <SCORE.INTER.norm>
-1.51348

>  <SCORE.INTRA>
-1.34909

>  <SCORE.INTRA.DIHEDRAL>
-2.94994

>  <SCORE.INTRA.DIHEDRAL.0>
5.02738

>  <SCORE.INTRA.POLAR>
0

>  <SCORE.INTRA.POLAR.0>
0

>  <SCORE.INTRA.REPUL>
0

>  <SCORE.INTRA.REPUL.0>
0

>  <SCORE.INTRA.VDW>
0.125877

>  <SCORE.INTRA.VDW.0>
-0.709724

>  <SCORE.INTRA.norm>
-0.134909

>  <SCORE.RESTR>
0.216781

>  <SCORE.RESTR.CAVITY>
0.216781

>  <SCORE.RESTR.norm>
0.0216781

>  <SCORE.SYSTEM>
-8.71193

>  <SCORE.SYSTEM.CONST>
0

>  <SCORE.SYSTEM.DIHEDRAL>
2.69412

>  <SCORE.SYSTEM.POLAR>
-2.55832

>  <SCORE.SYSTEM.VDW>
-1.36071

>  <SCORE.SYSTEM.norm>
-0.871193

>  <SCORE.heavy>
10

>  <SCORE.norm>
-2.4979

$$$$

  rDOCK(R)          3D
libRbt.so/2013.1/901 2013/11/27
 14 14  0  0  0  0  0  0  0  0999 V2000
   26.2341   28.3183   15.3077 C   0  0  0  0  0  0
   25.8013   27.8879   16.5731 O   0  0  0  0  0  0
   25.1688   28.2963   14.3784 O   0  0  0  0  0  0
   25.2127   29.5052   13.6493 C   0  0  0  0  0  0
   25.0754   29.2190   12.1487 C   0  0  0  0  0  0
   24.6810   30.3770   11.4640 O   0  0  0  0  0  0
   26.5170   30.2291   13.9727 C   0  0  0  0  0  0
   26.3426   31.6222   13.9396 O   0  0  0  0  0  0
   26.8352   29.7198   15.3564 C   0  0  0  0  0  0
   26.1965   30.4986   16.3389 O   0  0  0  0  0  0
   26.5910   27.8959   17.1752 H   0  0  0  0  0  0
   25.4849   30.9560   11.3982 H   0  0  0  0  0  0
   26.1472   31.8576   12.9952 H   0  0  0  0  0  0
   26.3556   30.0474   17.2087 H   0  0  0  0  0  0
  1  2  1  0  0  0
  1  3  1  0  0  0
  3  4  1  0  0  0
  4  5  1  0  0  0
  5  6  1  0  0  0
  4  7  1  0  0  0
  7  8  1  0  0  0
  7  9  1  0  0  0
  9 10  1  0  0  0
  9  1  1  0  0  0
  2 11  1  0  0  0
  6 12  1  0  0  0
  8 13  1  0  0  0
 10 14  1  0  0  0
M  END
>  <CHROM.0>
-45.76130318,-55.96932462,71.97857890,-56.78756701,175.97477343,-174.05629962
174.46597457

>  <CHROM.1>
178.26146098,160.67663986,76.05461081,-66.38233349,61.51139405,25.79392957
29.59848193,14.33103111,1.03732209,1.10303472,2.38582902

>  <RI>
2.0787e+07

>  <Rbt.Current_Directory>
/extra/banzai2/j5wagner/CELPP/2016_10_17_rdock_implementation/normal_run/tutorialVideo/tutorial_rdock_implementation/full_week_run/4-docking/5m93/LMCSS_1ogw_docking

>  <Rbt.Executable>
rbdock ($Id: //depot/dev/client3/rdock/2013.1/src/exe/rbdock.cxx#4 $)

>  <Rbt.Library>
libRbt.so (2013.1, Build901 2013/11/27)

>  <Rbt.Parameter_File>
/home/j5wagner/env_00/source/rDock/rDock_2013.1_src//data/scripts/dock.prm

>  <Rbt.Receptor>
/extra/banzai2/j5wagner/CELPP/2016_10_17_rdock_implementation/normal_run/tutorialVideo/tutorial_rdock_implementation/full_week_run/4-docking/5m93/LMCSS_1ogw_tech_prep/rDockGridGenInput.prm

>  <SCORE>
-24.9607

>  <SCORE.INTER>
-15.4789

>  <SCORE.INTER.CONST>
1

>  <SCORE.INTER.POLAR>
-2.58292

>  <SCORE.INTER.REPUL>
0

>  <SCORE.INTER.ROT>
1

>  <SCORE.INTER.VDW>
-13.097

>  <SCORE.INTER.norm>
-1.54789

>  <SCORE.INTRA>
-0.55778

>  <SCORE.INTRA.DIHEDRAL>
-2.00865

>  <SCORE.INTRA.DIHEDRAL.0>
5.02738

>  <SCORE.INTRA.POLAR>
0

>  <SCORE.INTRA.POLAR.0>
0

>  <SCORE.INTRA.REPUL>
0

>  <SCORE.INTRA.REPUL.0>
0

>  <SCORE.INTRA.VDW>
0.446545

>  <SCORE.INTRA.VDW.0>
-0.709724

>  <SCORE.INTRA.norm>
-0.055778

>  <SCORE.RESTR>
0

>  <SCORE.RESTR.CAVITY>
0

>  <SCORE.RESTR.norm>
0

>  <SCORE.SYSTEM>
-8.92395

>  <SCORE.SYSTEM.CONST>
0

>  <SCORE.SYSTEM.DIHEDRAL>
1.27789

>  <SCORE.SYSTEM.POLAR>
-3.03196

>  <SCORE.SYSTEM.REPUL>
0.0345783

>  <SCORE.SYSTEM.VDW>
0.572872

>  <SCORE.SYSTEM.norm>
-0.892395

>  <SCORE.heavy>
10

>  <SCORE.norm>
-2.49607

$$$$

  rDOCK(R)          3D
libRbt.so/2013.1/901 2013/11/27
 14 14  0  0  0  0  0  0  0  0999 V2000
   23.8661   25.7757   18.4521 C   0  0  0  0  0  0
   22.9152   25.8328   19.4848 O   0  0  0  0  0  0
   24.4673   27.0398   18.2526 O   0  0  0  0  0  0
   25.8595   26.8363   18.1303 C   0  0  0  0  0  0
   26.3998   27.6128   16.9229 C   0  0  0  0  0  0
   26.1409   28.9830   17.0669 O   0  0  0  0  0  0
   26.1306   25.3389   18.0105 C   0  0  0  0  0  0
   27.3547   24.9981   18.6085 O   0  0  0  0  0  0
   24.9492   24.7378   18.7304 C   0  0  0  0  0  0
   25.1979   24.6398   20.1119 O   0  0  0  0  0  0
   22.1885   26.4399   19.1856 H   0  0  0  0  0  0
   25.1537   29.0887   17.0540 H   0  0  0  0  0  0
   28.0543   25.5115   18.1263 H   0  0  0  0  0  0
   24.3199   24.4899   20.5500 H   0  0  0  0  0  0
  1  2  1  0  0  0
  1  3  1  0  0  0
  3  4  1  0  0  0
  4  5  1  0  0  0
  5  6  1  0  0  0
  4  7  1  0  0  0
  7  8  1  0  0  0
  7  9  1  0  0  0
  9 10  1  0  0  0
  9  1  1  0  0  0
  2 11  1  0  0  0
  6 12  1  0  0  0
  8 13  1  0  0  0
 10 14  1  0  0  0
M  END
>  <CHROM.0>
-45.49541052,172.68207580,71.91055673,63.97540456,171.41459613,-173.28588325
63.72309460

>  <CHROM.1>
64.50012024,59.16701744,-64.54281878,-60.16611661,52.49817344,25.31338894
26.20639627,18.40931222,2.04767275,-0.25951287,2.63370824

>  <RI>
2.0787e+07

>  <Rbt.Current_Directory>
/extra/banzai2/j5wagner/CELPP/2016_10_17_rdock_implementation/normal_run/tutorialVideo/tutorial_rdock_implementation/full_week_run/4-docking/5m93/LMCSS_1ogw_docking

>  <Rbt.Executable>
rbdock ($Id: //depot/dev/client3/rdock/2013.1/src/exe/rbdock.cxx#4 $)

>  <Rbt.Library>
libRbt.so (2013.1, Build901 2013/11/27)

>  <Rbt.Parameter_File>
/home/j5wagner/env_00/source/rDock/rDock_2013.1_src//data/scripts/dock.prm

>  <Rbt.Receptor>
/extra/banzai2/j5wagner/CELPP/2016_10_17_rdock_implementation/normal_run/tutorialVideo/tutorial_rdock_implementation/full_week_run/4-docking/5m93/LMCSS_1ogw_tech_prep/rDockGridGenInput.prm

>  <SCORE>
-24.7713

>  <SCORE.INTER>
-12.5299

>  <SCORE.INTER.CONST>
1

>  <SCORE.INTER.POLAR>
-1.07703

>  <SCORE.INTER.REPUL>
0

>  <SCORE.INTER.ROT>
1

>  <SCORE.INTER.VDW>
-15.268

>  <SCORE.INTER.norm>
-1.25299

>  <SCORE.INTRA>
-1.95446

>  <SCORE.INTRA.DIHEDRAL>
-4.20949

>  <SCORE.INTRA.DIHEDRAL.0>
5.02738

>  <SCORE.INTRA.POLAR>
-0.0800773

>  <SCORE.INTRA.POLAR.0>
0

>  <SCORE.INTRA.REPUL>
0

>  <SCORE.INTRA.REPUL.0>
0

>  <SCORE.INTRA.VDW>
0.422548

>  <SCORE.INTRA.VDW.0>
-0.709724

>  <SCORE.INTRA.norm>
-0.195446

>  <SCORE.RESTR>
0

>  <SCORE.RESTR.CAVITY>
0

>  <SCORE.RESTR.norm>
0

>  <SCORE.SYSTEM>
-10.2869

>  <SCORE.SYSTEM.CONST>
0

>  <SCORE.SYSTEM.DIHEDRAL>
1.53392

>  <SCORE.SYSTEM.POLAR>
-3.01507

>  <SCORE.SYSTEM.REPUL>
0.0308

>  <SCORE.SYSTEM.VDW>
-0.956659

>  <SCORE.SYSTEM.norm>
-1.02869

>  <SCORE.heavy>
10

>  <SCORE.norm>
-2.47713

$$$$

  rDOCK(R)          3D
libRbt.so/2013.1/901 2013/11/27
 14 14  0  0  0  0  0  0  0  0999 V2000
   30.0632   27.1990   23.2860 C   0  0  0  0  0  0
   31.0148   28.1176   23.7600 O   0  0  0  0  0  0
   29.9054   27.3168   21.8860 O   0  0  0  0  0  0
   29.8979   26.0120   21.3455 C   0  0  0  0  0  0
   28.7337   25.8587   20.3588 C   0  0  0  0  0  0
   27.5103   26.0753   21.0083 O   0  0  0  0  0  0
   29.8099   25.0049   22.4891 C   0  0  0  0  0  0
   30.5075   23.8263   22.1786 O   0  0  0  0  0  0
   30.4351   25.7610   23.6349 C   0  0  0  0  0  0
   31.8328   25.5989   23.6421 O   0  0  0  0  0  0
   31.7944   28.0805   23.1460 H   0  0  0  0  0  0
   27.4720   27.0431   21.2270 H   0  0  0  0  0  0
   30.5007   23.2718   23.0020 H   0  0  0  0  0  0
   32.1449   25.8534   24.5494 H   0  0  0  0  0  0
  1  2  1  0  0  0
  1  3  1  0  0  0
  3  4  1  0  0  0
  4  5  1  0  0  0
  5  6  1  0  0  0
  4  7  1  0  0  0
  7  8  1  0  0  0
  7  9  1  0  0  0
  9 10  1  0  0  0
  9  1  1  0  0  0
  2 11  1  0  0  0
  6 12  1  0  0  0
  8 13  1  0  0  0
 10 14  1  0  0  0
M  END
>  <CHROM.0>
-47.99275010,172.27399791,48.04894727,-177.38479374,-175.96008712,70.59168156
172.61271683

>  <CHROM.1>
-45.29254878,-60.40229535,69.82505622,173.20677401,86.33765587,29.99455008
26.08611428,22.37572695,0.36090206,-0.73755848,0.21497835

>  <RI>
2.0787e+07

>  <Rbt.Current_Directory>
/extra/banzai2/j5wagner/CELPP/2016_10_17_rdock_implementation/normal_run/tutorialVideo/tutorial_rdock_implementation/full_week_run/4-docking/5m93/LMCSS_1ogw_docking

>  <Rbt.Executable>
rbdock ($Id: //depot/dev/client3/rdock/2013.1/src/exe/rbdock.cxx#4 $)

>  <Rbt.Library>
libRbt.so (2013.1, Build901 2013/11/27)

>  <Rbt.Parameter_File>
/home/j5wagner/env_00/source/rDock/rDock_2013.1_src//data/scripts/dock.prm

>  <Rbt.Receptor>
/extra/banzai2/j5wagner/CELPP/2016_10_17_rdock_implementation/normal_run/tutorialVideo/tutorial_rdock_implementation/full_week_run/4-docking/5m93/LMCSS_1ogw_tech_prep/rDockGridGenInput.prm

>  <SCORE>
-24.7112

>  <SCORE.INTER>
-15.9818

>  <SCORE.INTER.CONST>
1

>  <SCORE.INTER.POLAR>
-3.53442

>  <SCORE.INTER.REPUL>
0.138643

>  <SCORE.INTER.ROT>
1

>  <SCORE.INTER.VDW>
-11.058

>  <SCORE.INTER.norm>
-1.59818

>  <SCORE.INTRA>
-0.0786921

>  <SCORE.INTRA.DIHEDRAL>
-0.239977

>  <SCORE.INTRA.DIHEDRAL.0>
5.02738

>  <SCORE.INTRA.POLAR>
0

>  <SCORE.INTRA.POLAR.0>
0

>  <SCORE.INTRA.REPUL>
0

>  <SCORE.INTRA.REPUL.0>
0

>  <SCORE.INTRA.VDW>
0.0412965

>  <SCORE.INTRA.VDW.0>
-0.709724

>  <SCORE.INTRA.norm>
-0.00786921

>  <SCORE.RESTR>
0.205121

>  <SCORE.RESTR.CAVITY>
0.205121

>  <SCORE.RESTR.norm>
0.0205121

>  <SCORE.SYSTEM>
-8.85581

>  <SCORE.SYSTEM.CONST>
0

>  <SCORE.SYSTEM.DIHEDRAL>
1.82815

>  <SCORE.SYSTEM.POLAR>
-2.75181

>  <SCORE.SYSTEM.REPUL>
0.000929512

>  <SCORE.SYSTEM.VDW>
-0.41839

>  <SCORE.SYSTEM.norm>
-0.885581

>  <SCORE.heavy>
10

>  <SCORE.norm>
-2.47112

$$$$

  rDOCK(R)          3D
libRbt.so/2013.1/901 2013/11/27
 14 14  0  0  0  0  0  0  0  0999 V2000
   30.0728   27.0765   23.3150 C   0  0  0  0  0  0
   31.1141   27.8959   23.7822 O   0  0  0  0  0  0
   29.7707   27.3690   21.9652 O   0  0  0  0  0  0
   29.6408   26.1405   21.2805 C   0  0  0  0  0  0
   28.3707   26.1501   20.4207 C   0  0  0  0  0  0
   28.1926   24.9071   19.7973 O   0  0  0  0  0  0
   29.6274   25.0058   22.3014 C   0  0  0  0  0  0
   30.2286   23.8493   21.7785 O   0  0  0  0  0  0
   30.4091   25.5943   23.4494 C   0  0  0  0  0  0
   31.7897   25.3824   23.2796 O   0  0  0  0  0  0
   31.8041   27.9343   23.0691 H   0  0  0  0  0  0
   27.3729   24.9823   19.2421 H   0  0  0  0  0  0
   31.1882   24.0673   21.6479 H   0  0  0  0  0  0
   32.2394   25.7858   24.0672 H   0  0  0  0  0  0
  1  2  1  0  0  0
  1  3  1  0  0  0
  3  4  1  0  0  0
  4  5  1  0  0  0
  5  6  1  0  0  0
  4  7  1  0  0  0
  7  8  1  0  0  0
  7  9  1  0  0  0
  9 10  1  0  0  0
  9  1  1  0  0  0
  2 11  1  0  0  0
  6 12  1  0  0  0
  8 13  1  0  0  0
 10 14  1  0  0  0
M  END
>  <CHROM.0>
76.84680101,171.60836983,-166.42961696,62.24410776,-174.01556073,-61.55914258
173.48183098

>  <CHROM.1>
-43.11482101,-176.61718363,-178.66872740,66.21406039,68.65888263,29.96035258
25.92634413,22.12031580,0.59495439,-0.82156270,0.25714456

>  <RI>
2.0787e+07

>  <Rbt.Current_Directory>
/extra/banzai2/j5wagner/CELPP/2016_10_17_rdock_implementation/normal_run/tutorialVideo/tutorial_rdock_implementation/full_week_run/4-docking/5m93/LMCSS_1ogw_docking

>  <Rbt.Executable>
rbdock ($Id: //depot/dev/client3/rdock/2013.1/src/exe/rbdock.cxx#4 $)

>  <Rbt.Library>
libRbt.so (2013.1, Build901 2013/11/27)

>  <Rbt.Parameter_File>
/home/j5wagner/env_00/source/rDock/rDock_2013.1_src//data/scripts/dock.prm

>  <Rbt.Receptor>
/extra/banzai2/j5wagner/CELPP/2016_10_17_rdock_implementation/normal_run/tutorialVideo/tutorial_rdock_implementation/full_week_run/4-docking/5m93/LMCSS_1ogw_tech_prep/rDockGridGenInput.prm

>  <SCORE>
-24.2725

>  <SCORE.INTER>
-14.1884

>  <SCORE.INTER.CONST>
1

>  <SCORE.INTER.POLAR>
-2.67098

>  <SCORE.INTER.REPUL>
0.00699162

>  <SCORE.INTER.ROT>
1

>  <SCORE.INTER.VDW>
-11.542

>  <SCORE.INTER.norm>
-1.41884

>  <SCORE.INTRA>
-1.44712

>  <SCORE.INTRA.DIHEDRAL>
-2.78649

>  <SCORE.INTRA.DIHEDRAL.0>
5.02738

>  <SCORE.INTRA.POLAR>
-0.136979

>  <SCORE.INTRA.POLAR.0>
0

>  <SCORE.INTRA.REPUL>
0

>  <SCORE.INTRA.REPUL.0>
0

>  <SCORE.INTRA.VDW>
0.411855

>  <SCORE.INTRA.VDW.0>
-0.709724

>  <SCORE.INTRA.norm>
-0.144712

>  <SCORE.RESTR>
0.0920244

>  <SCORE.RESTR.CAVITY>
0.0920244

>  <SCORE.RESTR.norm>
0.00920244

>  <SCORE.SYSTEM>
-8.72902

>  <SCORE.SYSTEM.CONST>
0

>  <SCORE.SYSTEM.DIHEDRAL>
1.72397

>  <SCORE.SYSTEM.POLAR>
-2.88481

>  <SCORE.SYSTEM.REPUL>
0.027712

>  <SCORE.SYSTEM.VDW>
0.0787797

>  <SCORE.SYSTEM.norm>
-0.872902

>  <SCORE.heavy>
10

>  <SCORE.norm>
-2.42725

$$$$

  rDOCK(R)          3D
libRbt.so/2013.1/901 2013/11/27
 14 14  0  0  0  0  0  0  0  0999 V2000
   30.0695   27.0320   23.2763 C   0  0  0  0  0  0
   31.1197   27.8133   23.7869 O   0  0  0  0  0  0
   29.8234   27.3461   21.9200 O   0  0  0  0  0  0
   29.6778   26.1286   21.2190 C   0  0  0  0  0  0
   28.4389   26.1869   20.3166 C   0  0  0  0  0  0
   28.2436   24.9564   19.6739 O   0  0  0  0  0  0
   29.5931   24.9859   22.2275 C   0  0  0  0  0  0
   30.1746   23.8153   21.7138 O   0  0  0  0  0  0
   30.3533   25.5387   23.4072 C   0  0  0  0  0  0
   31.7315   25.2838   23.2823 O   0  0  0  0  0  0
   31.8064   27.8897   23.0736 H   0  0  0  0  0  0
   27.4438   25.0618   19.0950 H   0  0  0  0  0  0
   31.1144   24.0443   21.4907 H   0  0  0  0  0  0
   31.8515   24.3043   23.3897 H   0  0  0  0  0  0
  1  2  1  0  0  0
  1  3  1  0  0  0
  3  4  1  0  0  0
  4  5  1  0  0  0
  5  6  1  0  0  0
  4  7  1  0  0  0
  7  8  1  0  0  0
  7  9  1  0  0  0
  9 10  1  0  0  0
  9  1  1  0  0  0
  2 11  1  0  0  0
  6 12  1  0  0  0
  8 13  1  0  0  0
 10 14  1  0  0  0
M  END
>  <CHROM.0>
-165.81592620,171.64410549,71.74664686,64.20188033,175.05712126,-172.42157297
174.77451894

>  <CHROM.1>
-39.14156692,-176.68955303,-178.91080495,57.95381043,179.15545519,29.95890924
25.88836992,22.06121329,0.56537333,-0.86284388,0.24486662

>  <RI>
2.0787e+07

>  <Rbt.Current_Directory>
/extra/banzai2/j5wagner/CELPP/2016_10_17_rdock_implementation/normal_run/tutorialVideo/tutorial_rdock_implementation/full_week_run/4-docking/5m93/LMCSS_1ogw_docking

>  <Rbt.Executable>
rbdock ($Id: //depot/dev/client3/rdock/2013.1/src/exe/rbdock.cxx#4 $)

>  <Rbt.Library>
libRbt.so (2013.1, Build901 2013/11/27)

>  <Rbt.Parameter_File>
/home/j5wagner/env_00/source/rDock/rDock_2013.1_src//data/scripts/dock.prm

>  <Rbt.Receptor>
/extra/banzai2/j5wagner/CELPP/2016_10_17_rdock_implementation/normal_run/tutorialVideo/tutorial_rdock_implementation/full_week_run/4-docking/5m93/LMCSS_1ogw_tech_prep/rDockGridGenInput.prm

>  <SCORE>
-24.2484

>  <SCORE.INTER>
-13.9002

>  <SCORE.INTER.CONST>
1

>  <SCORE.INTER.POLAR>
-2.76254

>  <SCORE.INTER.REPUL>
0.0718917

>  <SCORE.INTER.ROT>
1

>  <SCORE.INTER.VDW>
-11.267

>  <SCORE.INTER.norm>
-1.39002

>  <SCORE.INTRA>
-0.864609

>  <SCORE.INTRA.DIHEDRAL>
-2.67122

>  <SCORE.INTRA.DIHEDRAL.0>
5.02738

>  <SCORE.INTRA.POLAR>
0

>  <SCORE.INTRA.POLAR.0>
0

>  <SCORE.INTRA.REPUL>
0

>  <SCORE.INTRA.REPUL.0>
0

>  <SCORE.INTRA.VDW>
0.471002

>  <SCORE.INTRA.VDW.0>
-0.709724

>  <SCORE.INTRA.norm>
-0.0864609

>  <SCORE.RESTR>
0.0743019

>  <SCORE.RESTR.CAVITY>
0.0743019

>  <SCORE.RESTR.norm>
0.00743019

>  <SCORE.SYSTEM>
-9.55792

>  <SCORE.SYSTEM.CONST>
0

>  <SCORE.SYSTEM.DIHEDRAL>
1.64102

>  <SCORE.SYSTEM.POLAR>
-3.01653

>  <SCORE.SYSTEM.REPUL>
0.0283658

>  <SCORE.SYSTEM.VDW>
-0.264043

>  <SCORE.SYSTEM.norm>
-0.955792

>  <SCORE.heavy>
10

>  <SCORE.norm>
-2.42484

$$$$

  rDOCK(R)          3D
libRbt.so/2013.1/901 2013/11/27
 14 14  0  0  0  0  0  0  0  0999 V2000
   27.0606   25.8011   17.4112 C   0  0  0  0  0  0
   26.5965   26.7023   16.4383 O   0  0  0  0  0  0
   27.6308   26.4923   18.5048 O   0  0  0  0  0  0
   27.1424   25.8965   19.6885 C   0  0  0  0  0  0
   28.2987   25.6393   20.6629 C   0  0  0  0  0  0
   28.9089   26.8476   21.0277 O   0  0  0  0  0  0
   26.4078   24.6087   19.3257 C   0  0  0  0  0  0
   25.3358   24.3750   20.2024 O   0  0  0  0  0  0
   25.9505   24.8836   17.9149 C   0  0  0  0  0  0
   24.7131   25.5535   17.9081 O   0  0  0  0  0  0
   27.3763   27.2356   16.1321 H   0  0  0  0  0  0
   28.1839   27.4485   21.3427 H   0  0  0  0  0  0
   24.6510   25.0636   19.9970 H   0  0  0  0  0  0
   24.5439   25.8310   16.9702 H   0  0  0  0  0  0
  1  2  1  0  0  0
  1  3  1  0  0  0
  3  4  1  0  0  0
  4  5  1  0  0  0
  5  6  1  0  0  0
  4  7  1  0  0  0
  7  8  1  0  0  0
  7  9  1  0  0  0
  9 10  1  0  0  0
  9  1  1  0  0  0
  2 11  1  0  0  0
  6 12  1  0  0  0
  8 13  1  0  0  0
 10 14  1  0  0  0
M  END
>  <CHROM.0>
-44.03744252,173.14921480,71.89709433,-54.37993142,-5.62140691,72.26425326
-57.13957784

>  <CHROM.1>
59.94667664,61.84090687,52.20420427,70.05077501,59.33927043,26.78138816,25.73009532
18.90307455,-2.38797998,0.56750143,1.93131101

>  <RI>
2.0787e+07

>  <Rbt.Current_Directory>
/extra/banzai2/j5wagner/CELPP/2016_10_17_rdock_implementation/normal_run/tutorialVideo/tutorial_rdock_implementation/full_week_run/4-docking/5m93/LMCSS_1ogw_docking

>  <Rbt.Executable>
rbdock ($Id: //depot/dev/client3/rdock/2013.1/src/exe/rbdock.cxx#4 $)

>  <Rbt.Library>
libRbt.so (2013.1, Build901 2013/11/27)

>  <Rbt.Parameter_File>
/home/j5wagner/env_00/source/rDock/rDock_2013.1_src//data/scripts/dock.prm

>  <Rbt.Receptor>
/extra/banzai2/j5wagner/CELPP/2016_10_17_rdock_implementation/normal_run/tutorialVideo/tutorial_rdock_implementation/full_week_run/4-docking/5m93/LMCSS_1ogw_tech_prep/rDockGridGenInput.prm

>  <SCORE>
-24.0481

>  <SCORE.INTER>
-11.8369

>  <SCORE.INTER.CONST>
1

>  <SCORE.INTER.POLAR>
-1.58748

>  <SCORE.INTER.REPUL>
0

>  <SCORE.INTER.ROT>
1

>  <SCORE.INTER.VDW>
-12.8395

>  <SCORE.INTER.norm>
-1.18369

>  <SCORE.INTRA>
-1.88267

>  <SCORE.INTRA.DIHEDRAL>
-3.88897

>  <SCORE.INTRA.DIHEDRAL.0>
5.02738

>  <SCORE.INTRA.POLAR>
-0.197203

>  <SCORE.INTRA.POLAR.0>
0

>  <SCORE.INTRA.REPUL>
0

>  <SCORE.INTRA.REPUL.0>
0

>  <SCORE.INTRA.VDW>
0.732303

>  <SCORE.INTRA.VDW.0>
-0.709724

>  <SCORE.INTRA.norm>
-0.188267

>  <SCORE.RESTR>
0

>  <SCORE.RESTR.CAVITY>
0

>  <SCORE.RESTR.norm>
0

>  <SCORE.SYSTEM>
-10.3285

>  <SCORE.SYSTEM.CONST>
0

>  <SCORE.SYSTEM.DIHEDRAL>
2.04655

>  <SCORE.SYSTEM.POLAR>
-3.33396

>  <SCORE.SYSTEM.REPUL>
0.0233392

>  <SCORE.SYSTEM.VDW>
-0.132983

>  <SCORE.SYSTEM.norm>
-1.03285

>  <SCORE.heavy>
10

>  <SCORE.norm>
-2.40481

$$$$

  rDOCK(R)          3D
libRbt.so/2013.1/901 2013/11/27
 14 14  0  0  0  0  0  0  0  0999 V2000
   25.6366   29.7258   13.5632 C   0  0  0  0  0  0
   26.2903   30.0167   12.3541 O   0  0  0  0  0  0
   26.1115   28.5121   14.1115 O   0  0  0  0  0  0
   26.3317   28.7234   15.4904 C   0  0  0  0  0  0
   25.7187   27.5755   16.3023 C   0  0  0  0  0  0
   25.9219   27.7835   17.6738 O   0  0  0  0  0  0
   25.7416   30.0754   15.8828 C   0  0  0  0  0  0
   26.4951   30.6780   16.9032 O   0  0  0  0  0  0
   25.8055   30.8445   14.5868 C   0  0  0  0  0  0
   27.0563   31.4708   14.4340 O   0  0  0  0  0  0
   25.9705   30.9065   12.0506 H   0  0  0  0  0  0
   25.5083   27.0121   18.1426 H   0  0  0  0  0  0
   27.4191   30.7696   16.5521 H   0  0  0  0  0  0
   27.0809   32.2212   15.0833 H   0  0  0  0  0  0
  1  2  1  0  0  0
  1  3  1  0  0  0
  3  4  1  0  0  0
  4  5  1  0  0  0
  5  6  1  0  0  0
  4  7  1  0  0  0
  7  8  1  0  0  0
  7  9  1  0  0  0
  9 10  1  0  0  0
  9  1  1  0  0  0
  2 11  1  0  0  0
  6 12  1  0  0  0
  8 13  1  0  0  0
 10 14  1  0  0  0
M  END
>  <CHROM.0>
-165.61700413,174.75941247,71.77930452,-55.62200439,-175.33456570,71.32825987
176.49593883

>  <CHROM.1>
-175.80375585,-179.45306047,-179.84388045,58.30362994,176.39100508,26.14483620
29.56086422,15.14339503,1.18990440,-1.34955873,-1.39660446

>  <RI>
2.0787e+07

>  <Rbt.Current_Directory>
/extra/banzai2/j5wagner/CELPP/2016_10_17_rdock_implementation/normal_run/tutorialVideo/tutorial_rdock_implementation/full_week_run/4-docking/5m93/LMCSS_1ogw_docking

>  <Rbt.Executable>
rbdock ($Id: //depot/dev/client3/rdock/2013.1/src/exe/rbdock.cxx#4 $)

>  <Rbt.Library>
libRbt.so (2013.1, Build901 2013/11/27)

>  <Rbt.Parameter_File>
/home/j5wagner/env_00/source/rDock/rDock_2013.1_src//data/scripts/dock.prm

>  <Rbt.Receptor>
/extra/banzai2/j5wagner/CELPP/2016_10_17_rdock_implementation/normal_run/tutorialVideo/tutorial_rdock_implementation/full_week_run/4-docking/5m93/LMCSS_1ogw_tech_prep/rDockGridGenInput.prm

>  <SCORE>
-23.5172

>  <SCORE.INTER>
-11.2007

>  <SCORE.INTER.CONST>
1

>  <SCORE.INTER.POLAR>
-1.81652

>  <SCORE.INTER.REPUL>
0

>  <SCORE.INTER.ROT>
1

>  <SCORE.INTER.VDW>
-11.4245

>  <SCORE.INTER.norm>
-1.12007

>  <SCORE.INTRA>
-1.65204

>  <SCORE.INTRA.DIHEDRAL>
-4.50909

>  <SCORE.INTRA.DIHEDRAL.0>
5.02738

>  <SCORE.INTRA.POLAR>
0

>  <SCORE.INTRA.POLAR.0>
0

>  <SCORE.INTRA.REPUL>
0

>  <SCORE.INTRA.REPUL.0>
0

>  <SCORE.INTRA.VDW>
0.602502

>  <SCORE.INTRA.VDW.0>
-0.709724

>  <SCORE.INTRA.norm>
-0.165204

>  <SCORE.RESTR>
0

>  <SCORE.RESTR.CAVITY>
0

>  <SCORE.RESTR.norm>
0

>  <SCORE.SYSTEM>
-10.6645

>  <SCORE.SYSTEM.CONST>
0

>  <SCORE.SYSTEM.DIHEDRAL>
1.71387

>  <SCORE.SYSTEM.POLAR>
-3.31651

>  <SCORE.SYSTEM.REPUL>
0.00102513

>  <SCORE.SYSTEM.VDW>
-0.250404

>  <SCORE.SYSTEM.norm>
-1.06645

>  <SCORE.heavy>
10

>  <SCORE.norm>
-2.35172

$$$$

  rDOCK(R)          3D
libRbt.so/2013.1/901 2013/11/27
 14 14  0  0  0  0  0  0  0  0999 V2000
   30.1099   27.1273   23.3585 C   0  0  0  0  0  0
   31.1657   27.9241   23.8320 O   0  0  0  0  0  0
   29.8544   27.3916   21.9933 O   0  0  0  0  0  0
   29.7008   26.1494   21.3390 C   0  0  0  0  0  0
   28.4553   26.1775   20.4442 C   0  0  0  0  0  0
   28.2624   24.9296   19.8352 O   0  0  0  0  0  0
   29.6209   25.0451   22.3896 C   0  0  0  0  0  0
   30.1958   23.8547   21.9154 O   0  0  0  0  0  0
   30.3912   25.6390   23.5425 C   0  0  0  0  0  0
   31.7678   25.3761   23.4170 O   0  0  0  0  0  0
   31.8586   27.9513   23.1213 H   0  0  0  0  0  0
   27.4364   25.0043   19.2892 H   0  0  0  0  0  0
   29.8620   23.7324   20.9885 H   0  0  0  0  0  0
   31.8820   24.3958   23.5236 H   0  0  0  0  0  0
  1  2  1  0  0  0
  1  3  1  0  0  0
  3  4  1  0  0  0
  4  5  1  0  0  0
  5  6  1  0  0  0
  4  7  1  0  0  0
  7  8  1  0  0  0
  7  9  1  0  0  0
  9 10  1  0  0  0
  9  1  1  0  0  0
  2 11  1  0  0  0
  6 12  1  0  0  0
  8 13  1  0  0  0
 10 14  1  0  0  0
M  END
>  <CHROM.0>
-167.46127210,170.64182340,-166.64751868,-176.27556081,176.57998245,73.46809472
-54.06771140

>  <CHROM.1>
-40.70691082,-177.45703230,178.76856474,-44.61973969,-178.63436956,29.98008278
25.93778165,22.18123171,0.56118318,-0.86185864,0.19583154

>  <RI>
2.0787e+07

>  <Rbt.Current_Directory>
/extra/banzai2/j5wagner/CELPP/2016_10_17_rdock_implementation/normal_run/tutorialVideo/tutorial_rdock_implementation/full_week_run/4-docking/5m93/LMCSS_1ogw_docking

>  <Rbt.Executable>
rbdock ($Id: //depot/dev/client3/rdock/2013.1/src/exe/rbdock.cxx#4 $)

>  <Rbt.Library>
libRbt.so (2013.1, Build901 2013/11/27)

>  <Rbt.Parameter_File>
/home/j5wagner/env_00/source/rDock/rDock_2013.1_src//data/scripts/dock.prm

>  <Rbt.Receptor>
/extra/banzai2/j5wagner/CELPP/2016_10_17_rdock_implementation/normal_run/tutorialVideo/tutorial_rdock_implementation/full_week_run/4-docking/5m93/LMCSS_1ogw_tech_prep/rDockGridGenInput.prm

>  <SCORE>
-23.2121

>  <SCORE.INTER>
-12.5485

>  <SCORE.INTER.CONST>
1

>  <SCORE.INTER.POLAR>
-2.58694

>  <SCORE.INTER.REPUL>
0.134033

>  <SCORE.INTER.ROT>
1

>  <SCORE.INTER.VDW>
-10.8231

>  <SCORE.INTER.norm>
-1.25485

>  <SCORE.INTRA>
-1.62078

>  <SCORE.INTRA.DIHEDRAL>
-1.88411

>  <SCORE.INTRA.DIHEDRAL.0>
5.02738

>  <SCORE.INTRA.POLAR>
-0.325371

>  <SCORE.INTRA.POLAR.0>
0

>  <SCORE.INTRA.REPUL>
0

>  <SCORE.INTRA.REPUL.0>
0

>  <SCORE.INTRA.VDW>
0.427534

>  <SCORE.INTRA.VDW.0>
-0.709724

>  <SCORE.INTRA.norm>
-0.162078

>  <SCORE.RESTR>
0.134355

>  <SCORE.RESTR.CAVITY>
0.134355

>  <SCORE.RESTR.norm>
0.0134355

>  <SCORE.SYSTEM>
-9.17718

>  <SCORE.SYSTEM.CONST>
0

>  <SCORE.SYSTEM.DIHEDRAL>
2.3076

>  <SCORE.SYSTEM.POLAR>
-2.96327

>  <SCORE.SYSTEM.VDW>
-0.255844

>  <SCORE.SYSTEM.norm>
-0.917718

>  <SCORE.heavy>
10

>  <SCORE.norm>
-2.32121

$$$$

  rDOCK(R)          3D
libRbt.so/2013.1/901 2013/11/27
 14 14  0  0  0  0  0  0  0  0999 V2000
   30.1412   27.1653   23.4695 C   0  0  0  0  0  0
   31.1626   28.1030   23.6963 O   0  0  0  0  0  0
   29.7580   27.1595   22.1086 O   0  0  0  0  0  0
   29.6550   25.8116   21.6994 C   0  0  0  0  0  0
   28.3446   25.5941   20.9325 C   0  0  0  0  0  0
   28.3507   26.3255   19.7364 O   0  0  0  0  0  0
   29.7487   24.9139   22.9304 C   0  0  0  0  0  0
   30.3795   23.6979   22.6213 O   0  0  0  0  0  0
   30.5567   25.7573   23.8850 C   0  0  0  0  0  0
   31.9359   25.5674   23.6810 O   0  0  0  0  0  0
   31.8671   27.9450   23.0145 H   0  0  0  0  0  0
   27.4811   26.1489   19.2908 H   0  0  0  0  0  0
   30.4031   23.1728   23.4635 H   0  0  0  0  0  0
   32.1430   24.6419   23.9740 H   0  0  0  0  0  0
  1  2  1  0  0  0
  1  3  1  0  0  0
  3  4  1  0  0  0
  4  5  1  0  0  0
  5  6  1  0  0  0
  4  7  1  0  0  0
  7  8  1  0  0  0
  7  9  1  0  0  0
  9 10  1  0  0  0
  9  1  1  0  0  0
  2 11  1  0  0  0
  6 12  1  0  0  0
  8 13  1  0  0  0
 10 14  1  0  0  0
M  END
>  <CHROM.0>
-169.16850273,-57.10958581,-168.64177239,62.76659192,-179.00010491,72.23434613
64.85194911

>  <CHROM.1>
-49.84067583,65.11522646,-179.70015213,-179.99016633,179.60838489,30.03596306
26.00845448,22.45392946,0.11262129,-0.88256563,0.01109199

>  <RI>
2.0787e+07

>  <Rbt.Current_Directory>
/extra/banzai2/j5wagner/CELPP/2016_10_17_rdock_implementation/normal_run/tutorialVideo/tutorial_rdock_implementation/full_week_run/4-docking/5m93/LMCSS_1ogw_docking

>  <Rbt.Executable>
rbdock ($Id: //depot/dev/client3/rdock/2013.1/src/exe/rbdock.cxx#4 $)

>  <Rbt.Library>
libRbt.so (2013.1, Build901 2013/11/27)

>  <Rbt.Parameter_File>
/home/j5wagner/env_00/source/rDock/rDock_2013.1_src//data/scripts/dock.prm

>  <Rbt.Receptor>
/extra/banzai2/j5wagner/CELPP/2016_10_17_rdock_implementation/normal_run/tutorialVideo/tutorial_rdock_implementation/full_week_run/4-docking/5m93/LMCSS_1ogw_tech_prep/rDockGridGenInput.prm

>  <SCORE>
-23.0506

>  <SCORE.INTER>
-11.1994

>  <SCORE.INTER.CONST>
1

>  <SCORE.INTER.POLAR>
-2.33927

>  <SCORE.INTER.REPUL>
0.281611

>  <SCORE.INTER.ROT>
1

>  <SCORE.INTER.VDW>
-11.0539

>  <SCORE.INTER.norm>
-1.11994

>  <SCORE.INTRA>
-1.94995

>  <SCORE.INTRA.DIHEDRAL>
-4.08202

>  <SCORE.INTRA.DIHEDRAL.0>
5.02738

>  <SCORE.INTRA.POLAR>
0

>  <SCORE.INTRA.POLAR.0>
0

>  <SCORE.INTRA.REPUL>
0

>  <SCORE.INTRA.REPUL.0>
0

>  <SCORE.INTRA.VDW>
0.0910617

>  <SCORE.INTRA.VDW.0>
-0.709724

>  <SCORE.INTRA.norm>
-0.194995

>  <SCORE.RESTR>
0.297176

>  <SCORE.RESTR.CAVITY>
0.297176

>  <SCORE.RESTR.norm>
0.0297176

>  <SCORE.SYSTEM>
-10.1984

>  <SCORE.SYSTEM.CONST>
0

>  <SCORE.SYSTEM.DIHEDRAL>
1.48806

>  <SCORE.SYSTEM.POLAR>
-3.15291

>  <SCORE.SYSTEM.VDW>
-0.222539

>  <SCORE.SYSTEM.norm>
-1.01984

>  <SCORE.heavy>
10

>  <SCORE.norm>
-2.30506

$$$$

  rDOCK(R)          3D
libRbt.so/2013.1/901 2013/11/27
 14 14  0  0  0  0  0  0  0  0999 V2000
   26.1304   28.2536   15.3041 C   0  0  0  0  0  0
   25.7639   27.8789   16.6077 O   0  0  0  0  0  0
   24.9895   28.3808   14.4787 O   0  0  0  0  0  0
   25.1279   29.5764   13.7398 C   0  0  0  0  0  0
   24.8131   29.3194   12.2608 C   0  0  0  0  0  0
   23.4481   29.0484   12.0912 O   0  0  0  0  0  0
   26.5425   30.1157   13.9343 C   0  0  0  0  0  0
   26.5557   31.5197   13.9074 O   0  0  0  0  0  0
   26.9173   29.5606   15.2859 C   0  0  0  0  0  0
   26.4846   30.4135   16.3181 O   0  0  0  0  0  0
   25.1358   28.5682   16.9489 H   0  0  0  0  0  0
   23.2420   28.2602   12.6589 H   0  0  0  0  0  0
   26.3067   31.7843   12.9835 H   0  0  0  0  0  0
   25.4989   30.4912   16.2297 H   0  0  0  0  0  0
  1  2  1  0  0  0
  1  3  1  0  0  0
  3  4  1  0  0  0
  4  5  1  0  0  0
  5  6  1  0  0  0
  4  7  1  0  0  0
  7  8  1  0  0  0
  7  9  1  0  0  0
  9 10  1  0  0  0
  9  1  1  0  0  0
  2 11  1  0  0  0
  6 12  1  0  0  0
  8 13  1  0  0  0
 10 14  1  0  0  0
M  END
>  <CHROM.0>
-45.76618128,-56.65272647,-167.11361419,63.19855971,-171.48301407,68.86799790
65.35854415

>  <CHROM.1>
-57.57697776,69.02322191,-58.02002482,-66.41652088,-52.55262876,25.63180407
29.42015516,14.41545592,0.71490479,0.84867617,2.29314265

>  <RI>
2.0787e+07

>  <Rbt.Current_Directory>
/extra/banzai2/j5wagner/CELPP/2016_10_17_rdock_implementation/normal_run/tutorialVideo/tutorial_rdock_implementation/full_week_run/4-docking/5m93/LMCSS_1ogw_docking

>  <Rbt.Executable>
rbdock ($Id: //depot/dev/client3/rdock/2013.1/src/exe/rbdock.cxx#4 $)

>  <Rbt.Library>
libRbt.so (2013.1, Build901 2013/11/27)

>  <Rbt.Parameter_File>
/home/j5wagner/env_00/source/rDock/rDock_2013.1_src//data/scripts/dock.prm

>  <Rbt.Receptor>
/extra/banzai2/j5wagner/CELPP/2016_10_17_rdock_implementation/normal_run/tutorialVideo/tutorial_rdock_implementation/full_week_run/4-docking/5m93/LMCSS_1ogw_tech_prep/rDockGridGenInput.prm

>  <SCORE>
-22.9928

>  <SCORE.INTER>
-11.5819

>  <SCORE.INTER.CONST>
1

>  <SCORE.INTER.POLAR>
-1.58283

>  <SCORE.INTER.REPUL>
0

>  <SCORE.INTER.ROT>
1

>  <SCORE.INTER.VDW>
-12.6003

>  <SCORE.INTER.norm>
-1.15819

>  <SCORE.INTRA>
-1.27018

>  <SCORE.INTRA.DIHEDRAL>
-3.88773

>  <SCORE.INTRA.DIHEDRAL.0>
5.02738

>  <SCORE.INTRA.POLAR>
0

>  <SCORE.INTRA.POLAR.0>
0

>  <SCORE.INTRA.REPUL>
0

>  <SCORE.INTRA.REPUL.0>
0

>  <SCORE.INTRA.VDW>
0.673687

>  <SCORE.INTRA.VDW.0>
-0.709724

>  <SCORE.INTRA.norm>
-0.127018

>  <SCORE.RESTR>
0

>  <SCORE.RESTR.CAVITY>
0

>  <SCORE.RESTR.norm>
0

>  <SCORE.SYSTEM>
-10.1407

>  <SCORE.SYSTEM.CONST>
0

>  <SCORE.SYSTEM.DIHEDRAL>
1.58615

>  <SCORE.SYSTEM.POLAR>
-3.12516

>  <SCORE.SYSTEM.VDW>
-0.30823

>  <SCORE.SYSTEM.norm>
-1.01407

>  <SCORE.heavy>
10

>  <SCORE.norm>
-2.29928

$$$$

  rDOCK(R)          3D
libRbt.so/2013.1/901 2013/11/27
 14 14  0  0  0  0  0  0  0  0999 V2000
   30.1333   27.1652   23.4662 C   0  0  0  0  0  0
   31.1572   28.1013   23.6881 O   0  0  0  0  0  0
   29.7533   27.1499   22.1044 O   0  0  0  0  0  0
   29.6469   25.7992   21.7056 C   0  0  0  0  0  0
   28.3377   25.5799   20.9373 C   0  0  0  0  0  0
   28.3438   26.3117   19.7415 O   0  0  0  0  0  0
   29.7348   24.9109   22.9438 C   0  0  0  0  0  0
   30.3624   23.6904   22.6459 O   0  0  0  0  0  0
   30.5432   25.7591   23.8937 C   0  0  0  0  0  0
   31.9223   25.5632   23.6946 O   0  0  0  0  0  0
   31.8688   27.9271   23.0177 H   0  0  0  0  0  0
   27.4723   26.1393   19.2982 H   0  0  0  0  0  0
   30.3887   23.1748   23.4938 H   0  0  0  0  0  0
   32.1297   24.6470   24.0153 H   0  0  0  0  0  0
  1  2  1  0  0  0
  1  3  1  0  0  0
  3  4  1  0  0  0
  4  5  1  0  0  0
  5  6  1  0  0  0
  4  7  1  0  0  0
  7  8  1  0  0  0
  7  9  1  0  0  0
  9 10  1  0  0  0
  9  1  1  0  0  0
  2 11  1  0  0  0
  6 12  1  0  0  0
  8 13  1  0  0  0
 10 14  1  0  0  0
M  END
>  <CHROM.0>
72.15933625,-57.77207621,-47.47677209,-56.81820059,-9.30006188,69.99010511
63.63534905

>  <CHROM.1>
-50.65358399,64.56269259,-179.28997163,179.56829114,178.30387194,30.02623588
26.00187880,22.46039537,0.10482473,-0.88387181,-0.00066232

>  <RI>
2.0787e+07

>  <Rbt.Current_Directory>
/extra/banzai2/j5wagner/CELPP/2016_10_17_rdock_implementation/normal_run/tutorialVideo/tutorial_rdock_implementation/full_week_run/4-docking/5m93/LMCSS_1ogw_docking

>  <Rbt.Executable>
rbdock ($Id: //depot/dev/client3/rdock/2013.1/src/exe/rbdock.cxx#4 $)

>  <Rbt.Library>
libRbt.so (2013.1, Build901 2013/11/27)

>  <Rbt.Parameter_File>
/home/j5wagner/env_00/source/rDock/rDock_2013.1_src//data/scripts/dock.prm

>  <Rbt.Receptor>
/extra/banzai2/j5wagner/CELPP/2016_10_17_rdock_implementation/normal_run/tutorialVideo/tutorial_rdock_implementation/full_week_run/4-docking/5m93/LMCSS_1ogw_tech_prep/rDockGridGenInput.prm

>  <SCORE>
-22.9502

>  <SCORE.INTER>
-11.3017

>  <SCORE.INTER.CONST>
1

>  <SCORE.INTER.POLAR>
-2.37389

>  <SCORE.INTER.REPUL>
0.266198

>  <SCORE.INTER.ROT>
1

>  <SCORE.INTER.VDW>
-10.9615

>  <SCORE.INTER.norm>
-1.13017

>  <SCORE.INTRA>
-1.98955

>  <SCORE.INTRA.DIHEDRAL>
-4.15988

>  <SCORE.INTRA.DIHEDRAL.0>
5.02738

>  <SCORE.INTRA.POLAR>
0

>  <SCORE.INTRA.POLAR.0>
0

>  <SCORE.INTRA.REPUL>
0

>  <SCORE.INTRA.REPUL.0>
0

>  <SCORE.INTRA.VDW>
0.0903943

>  <SCORE.INTRA.VDW.0>
-0.709724

>  <SCORE.INTRA.norm>
-0.198955

>  <SCORE.RESTR>
0.295284

>  <SCORE.RESTR.CAVITY>
0.295284

>  <SCORE.RESTR.norm>
0.0295284

>  <SCORE.SYSTEM>
-9.95419

>  <SCORE.SYSTEM.CONST>
0

>  <SCORE.SYSTEM.DIHEDRAL>
1.45269

>  <SCORE.SYSTEM.POLAR>
-3.08858

>  <SCORE.SYSTEM.REPUL>
0.02986

>  <SCORE.SYSTEM.VDW>
-0.328669

>  <SCORE.SYSTEM.norm>
-0.995419

>  <SCORE.heavy>
10

>  <SCORE.norm>
-2.29502

$$$$

  rDOCK(R)          3D
libRbt.so/2013.1/901 2013/11/27
 14 14  0  0  0  0  0  0  0  0999 V2000
   30.1438   27.1670   23.4613 C   0  0  0  0  0  0
   31.1701   28.0983   23.6922 O   0  0  0  0  0  0
   29.7703   27.1591   22.0977 O   0  0  0  0  0  0
   29.6607   25.8105   21.6925 C   0  0  0  0  0  0
   28.3543   25.5995   20.9170 C   0  0  0  0  0  0
   28.3889   26.2973   19.7015 O   0  0  0  0  0  0
   29.7394   24.9165   22.9272 C   0  0  0  0  0  0
   30.3638   23.6950   22.6269 O   0  0  0  0  0  0
   30.5464   25.7575   23.8846 C   0  0  0  0  0  0
   31.9257   25.5573   23.6912 O   0  0  0  0  0  0
   31.8894   27.9167   23.0320 H   0  0  0  0  0  0
   27.5172   26.1339   19.2550 H   0  0  0  0  0  0
   30.4052   23.1851   23.4776 H   0  0  0  0  0  0
   32.1218   24.6270   23.9763 H   0  0  0  0  0  0
  1  2  1  0  0  0
  1  3  1  0  0  0
  3  4  1  0  0  0
  4  5  1  0  0  0
  5  6  1  0  0  0
  4  7  1  0  0  0
  7  8  1  0  0  0
  7  9  1  0  0  0
  9 10  1  0  0  0
  9  1  1  0  0  0
  2 11  1  0  0  0
  6 12  1  0  0  0
  8 13  1  0  0  0
 10 14  1  0  0  0
M  END
>  <CHROM.0>
-46.52800164,-56.05181274,69.89602681,-56.52847334,-175.15810680,71.50410637
174.28865755

>  <CHROM.1>
-51.37585466,66.72402692,-179.16925511,178.14689518,-179.57277963,30.03956123
26.00400966,22.44721207,0.10920391,-0.89265363,-0.00001756

>  <RI>
2.0787e+07

>  <Rbt.Current_Directory>
/extra/banzai2/j5wagner/CELPP/2016_10_17_rdock_implementation/normal_run/tutorialVideo/tutorial_rdock_implementation/full_week_run/4-docking/5m93/LMCSS_1ogw_docking

>  <Rbt.Executable>
rbdock ($Id: //depot/dev/client3/rdock/2013.1/src/exe/rbdock.cxx#4 $)

>  <Rbt.Library>
libRbt.so (2013.1, Build901 2013/11/27)

>  <Rbt.Parameter_File>
/home/j5wagner/env_00/source/rDock/rDock_2013.1_src//data/scripts/dock.prm

>  <Rbt.Receptor>
/extra/banzai2/j5wagner/CELPP/2016_10_17_rdock_implementation/normal_run/tutorialVideo/tutorial_rdock_implementation/full_week_run/4-docking/5m93/LMCSS_1ogw_tech_prep/rDockGridGenInput.prm

>  <SCORE>
-22.8681

>  <SCORE.INTER>
-11.2594

>  <SCORE.INTER.CONST>
1

>  <SCORE.INTER.POLAR>
-2.3174

>  <SCORE.INTER.REPUL>
0.261041

>  <SCORE.INTER.ROT>
1

>  <SCORE.INTER.VDW>
-11.0855

>  <SCORE.INTER.norm>
-1.12594

>  <SCORE.INTRA>
-1.95013

>  <SCORE.INTRA.DIHEDRAL>
-4.13122

>  <SCORE.INTRA.DIHEDRAL.0>
5.02738

>  <SCORE.INTRA.POLAR>
0

>  <SCORE.INTRA.POLAR.0>
0

>  <SCORE.INTRA.REPUL>
0

>  <SCORE.INTRA.REPUL.0>
0

>  <SCORE.INTRA.VDW>
0.115479

>  <SCORE.INTRA.VDW.0>
-0.709724

>  <SCORE.INTRA.norm>
-0.195013

>  <SCORE.RESTR>
0.302007

>  <SCORE.RESTR.CAVITY>
0.302007

>  <SCORE.RESTR.norm>
0.0302007

>  <SCORE.SYSTEM>
-9.96055

>  <SCORE.SYSTEM.CONST>
0

>  <SCORE.SYSTEM.DIHEDRAL>
1.60637

>  <SCORE.SYSTEM.POLAR>
-3.27363

>  <SCORE.SYSTEM.REPUL>
0.000971005

>  <SCORE.SYSTEM.VDW>
0.36175

>  <SCORE.SYSTEM.norm>
-0.996055

>  <SCORE.heavy>
10

>  <SCORE.norm>
-2.28681

$$$$

  rDOCK(R)          3D
libRbt.so/2013.1/901 2013/11/27
 14 14  0  0  0  0  0  0  0  0999 V2000
   30.1585   27.1281   23.5551 C   0  0  0  0  0  0
   31.1393   28.1032   23.8026 O   0  0  0  0  0  0
   29.7261   27.1809   22.2100 O   0  0  0  0  0  0
   29.6757   25.8554   21.7250 C   0  0  0  0  0  0
   28.3505   25.6144   20.9914 C   0  0  0  0  0  0
   28.2930   26.3828   19.8202 O   0  0  0  0  0  0
   29.8597   24.8942   22.8965 C   0  0  0  0  0  0
   30.5388   23.7326   22.4944 O   0  0  0  0  0  0
   30.6590   25.7220   23.8717 C   0  0  0  0  0  0
   32.0376   25.6166   23.6101 O   0  0  0  0  0  0
   31.8486   27.9912   23.1166 H   0  0  0  0  0  0
   29.0404   26.0768   19.2425 H   0  0  0  0  0  0
   31.4734   24.0070   22.3025 H   0  0  0  0  0  0
   32.5077   25.9406   24.4221 H   0  0  0  0  0  0
  1  2  1  0  0  0
  1  3  1  0  0  0
  3  4  1  0  0  0
  4  5  1  0  0  0
  5  6  1  0  0  0
  4  7  1  0  0  0
  7  8  1  0  0  0
  7  9  1  0  0  0
  9 10  1  0  0  0
  9  1  1  0  0  0
  2 11  1  0  0  0
  6 12  1  0  0  0
  8 13  1  0  0  0
 10 14  1  0  0  0
M  END
>  <CHROM.0>
72.23351320,173.63794323,-53.13971885,-176.97241584,-174.84074897,70.33794451
172.94159115

>  <CHROM.1>
-52.70431520,66.89070117,61.85393512,69.72681755,85.07997683,30.09405187
26.03763899,22.47053575,0.23362497,-0.85229996,0.14617197

>  <RI>
2.0787e+07

>  <Rbt.Current_Directory>
/extra/banzai2/j5wagner/CELPP/2016_10_17_rdock_implementation/normal_run/tutorialVideo/tutorial_rdock_implementation/full_week_run/4-docking/5m93/LMCSS_1ogw_docking

>  <Rbt.Executable>
rbdock ($Id: //depot/dev/client3/rdock/2013.1/src/exe/rbdock.cxx#4 $)

>  <Rbt.Library>
libRbt.so (2013.1, Build901 2013/11/27)

>  <Rbt.Parameter_File>
/home/j5wagner/env_00/source/rDock/rDock_2013.1_src//data/scripts/dock.prm

>  <Rbt.Receptor>
/extra/banzai2/j5wagner/CELPP/2016_10_17_rdock_implementation/normal_run/tutorialVideo/tutorial_rdock_implementation/full_week_run/4-docking/5m93/LMCSS_1ogw_tech_prep/rDockGridGenInput.prm

>  <SCORE>
-22.8467

>  <SCORE.INTER>
-13.2892

>  <SCORE.INTER.CONST>
1

>  <SCORE.INTER.POLAR>
-2.42146

>  <SCORE.INTER.REPUL>
0.0823693

>  <SCORE.INTER.ROT>
1

>  <SCORE.INTER.VDW>
-11.868

>  <SCORE.INTER.norm>
-1.32892

>  <SCORE.INTRA>
-0.837657

>  <SCORE.INTRA.DIHEDRAL>
-1.26722

>  <SCORE.INTRA.DIHEDRAL.0>
5.02738

>  <SCORE.INTRA.POLAR>
-0.193354

>  <SCORE.INTRA.POLAR.0>
0

>  <SCORE.INTRA.REPUL>
0

>  <SCORE.INTRA.REPUL.0>
0

>  <SCORE.INTRA.VDW>
0.453355

>  <SCORE.INTRA.VDW.0>
-0.709724

>  <SCORE.INTRA.norm>
-0.0837657

>  <SCORE.RESTR>
0.287993

>  <SCORE.RESTR.CAVITY>
0.287993

>  <SCORE.RESTR.norm>
0.0287993

>  <SCORE.SYSTEM>
-9.0079

>  <SCORE.SYSTEM.CONST>
0

>  <SCORE.SYSTEM.DIHEDRAL>
1.49519

>  <SCORE.SYSTEM.POLAR>
-2.73651

>  <SCORE.SYSTEM.REPUL>
0.000937678

>  <SCORE.SYSTEM.VDW>
-0.456031

>  <SCORE.SYSTEM.norm>
-0.90079

>  <SCORE.heavy>
10

>  <SCORE.norm>
-2.28467

$$$$

  rDOCK(R)          3D
libRbt.so/2013.1/901 2013/11/27
 14 14  0  0  0  0  0  0  0  0999 V2000
   29.8383   26.6106   23.2057 C   0  0  0  0  0  0
   30.7855   27.3278   23.9556 O   0  0  0  0  0  0
   29.6878   27.1728   21.9172 O   0  0  0  0  0  0
   29.6859   26.1114   20.9854 C   0  0  0  0  0  0
   28.5273   26.2838   19.9952 C   0  0  0  0  0  0
   27.3026   26.0201   20.6246 O   0  0  0  0  0  0
   29.5937   24.7897   21.7434 C   0  0  0  0  0  0
   30.2954   23.7740   21.0739 O   0  0  0  0  0  0
   30.2112   25.1369   23.0751 C   0  0  0  0  0  0
   31.6092   24.9813   23.0378 O   0  0  0  0  0  0
   30.4611   28.2637   24.0259 H   0  0  0  0  0  0
   27.3101   25.0578   20.8692 H   0  0  0  0  0  0
   31.2454   24.0608   21.0471 H   0  0  0  0  0  0
   31.7870   24.0051   23.0072 H   0  0  0  0  0  0
  1  2  1  0  0  0
  1  3  1  0  0  0
  3  4  1  0  0  0
  4  5  1  0  0  0
  5  6  1  0  0  0
  4  7  1  0  0  0
  7  8  1  0  0  0
  7  9  1  0  0  0
  9 10  1  0  0  0
  9  1  1  0  0  0
  2 11  1  0  0  0
  6 12  1  0  0  0
  8 13  1  0  0  0
 10 14  1  0  0  0
M  END
>  <CHROM.0>
72.81473701,174.28305604,71.52718548,62.75588621,-169.24258322,71.45821692
171.40289035

>  <CHROM.1>
59.62313246,-71.93116328,-65.41612519,61.82480350,176.71400012,29.77559089
25.81462351,21.97151451,0.45960963,-0.72973215,0.54867683

>  <RI>
2.0787e+07

>  <Rbt.Current_Directory>
/extra/banzai2/j5wagner/CELPP/2016_10_17_rdock_implementation/normal_run/tutorialVideo/tutorial_rdock_implementation/full_week_run/4-docking/5m93/LMCSS_1ogw_docking

>  <Rbt.Executable>
rbdock ($Id: //depot/dev/client3/rdock/2013.1/src/exe/rbdock.cxx#4 $)

>  <Rbt.Library>
libRbt.so (2013.1, Build901 2013/11/27)

>  <Rbt.Parameter_File>
/home/j5wagner/env_00/source/rDock/rDock_2013.1_src//data/scripts/dock.prm

>  <Rbt.Receptor>
/extra/banzai2/j5wagner/CELPP/2016_10_17_rdock_implementation/normal_run/tutorialVideo/tutorial_rdock_implementation/full_week_run/4-docking/5m93/LMCSS_1ogw_tech_prep/rDockGridGenInput.prm

>  <SCORE>
-22.7318

>  <SCORE.INTER>
-11.0608

>  <SCORE.INTER.CONST>
1

>  <SCORE.INTER.POLAR>
-2.67525

>  <SCORE.INTER.REPUL>
0.149296

>  <SCORE.INTER.ROT>
1

>  <SCORE.INTER.VDW>
-9.11142

>  <SCORE.INTER.norm>
-1.10608

>  <SCORE.INTRA>
-1.07289

>  <SCORE.INTRA.DIHEDRAL>
-3.95763

>  <SCORE.INTRA.DIHEDRAL.0>
5.02738

>  <SCORE.INTRA.POLAR>
0

>  <SCORE.INTRA.POLAR.0>
0

>  <SCORE.INTRA.REPUL>
0

>  <SCORE.INTRA.REPUL.0>
0

>  <SCORE.INTRA.VDW>
0.905931

>  <SCORE.INTRA.VDW.0>
-0.709724

>  <SCORE.INTRA.norm>
-0.107289

>  <SCORE.RESTR>
0.0255595

>  <SCORE.RESTR.CAVITY>
0.0255595

>  <SCORE.RESTR.norm>
0.00255595

>  <SCORE.SYSTEM>
-10.6237

>  <SCORE.SYSTEM.CONST>
0

>  <SCORE.SYSTEM.DIHEDRAL>
2.04855

>  <SCORE.SYSTEM.POLAR>
-3.28631

>  <SCORE.SYSTEM.REPUL>
0.000899375

>  <SCORE.SYSTEM.VDW>
-0.479008

>  <SCORE.SYSTEM.norm>
-1.06237

>  <SCORE.heavy>
10

>  <SCORE.norm>
-2.27318

$$$$

  rDOCK(R)          3D
libRbt.so/2013.1/901 2013/11/27
 14 14  0  0  0  0  0  0  0  0999 V2000
   30.1377   27.1849   23.4441 C   0  0  0  0  0  0
   31.1686   28.1107   23.6766 O   0  0  0  0  0  0
   29.7710   27.1740   22.0787 O   0  0  0  0  0  0
   29.6551   25.8246   21.6781 C   0  0  0  0  0  0
   28.3514   25.6187   20.8968 C   0  0  0  0  0  0
   28.4036   26.2967   19.6708 O   0  0  0  0  0  0
   29.7219   24.9350   22.9166 C   0  0  0  0  0  0
   30.3403   23.7084   22.6242 O   0  0  0  0  0  0
   30.5294   25.7747   23.8749 C   0  0  0  0  0  0
   31.9083   25.5652   23.6892 O   0  0  0  0  0  0
   31.8834   27.9322   23.0107 H   0  0  0  0  0  0
   27.5235   26.1589   19.2321 H   0  0  0  0  0  0
   30.3528   23.1921   23.4720 H   0  0  0  0  0  0
   32.1001   24.6401   23.9939 H   0  0  0  0  0  0
  1  2  1  0  0  0
  1  3  1  0  0  0
  3  4  1  0  0  0
  4  5  1  0  0  0
  5  6  1  0  0  0
  4  7  1  0  0  0
  7  8  1  0  0  0
  7  9  1  0  0  0
  9 10  1  0  0  0
  9  1  1  0  0  0
  2 11  1  0  0  0
  6 12  1  0  0  0
  8 13  1  0  0  0
 10 14  1  0  0  0
M  END
>  <CHROM.0>
-165.48046242,172.93927984,-49.62890378,-55.94018536,-10.83036957,-171.79855853
62.93527536

>  <CHROM.1>
-50.42227608,67.52613565,-177.62167084,179.59257322,179.45336124,30.03192540
26.01720436,22.43317631,0.10237398,-0.89909541,-0.01207923

>  <RI>
2.0787e+07

>  <Rbt.Current_Directory>
/extra/banzai2/j5wagner/CELPP/2016_10_17_rdock_implementation/normal_run/tutorialVideo/tutorial_rdock_implementation/full_week_run/4-docking/5m93/LMCSS_1ogw_docking

>  <Rbt.Executable>
rbdock ($Id: //depot/dev/client3/rdock/2013.1/src/exe/rbdock.cxx#4 $)

>  <Rbt.Library>
libRbt.so (2013.1, Build901 2013/11/27)

>  <Rbt.Parameter_File>
/home/j5wagner/env_00/source/rDock/rDock_2013.1_src//data/scripts/dock.prm

>  <Rbt.Receptor>
/extra/banzai2/j5wagner/CELPP/2016_10_17_rdock_implementation/normal_run/tutorialVideo/tutorial_rdock_implementation/full_week_run/4-docking/5m93/LMCSS_1ogw_tech_prep/rDockGridGenInput.prm

>  <SCORE>
-22.4738

>  <SCORE.INTER>
-11.3042

>  <SCORE.INTER.CONST>
1

>  <SCORE.INTER.POLAR>
-2.35996

>  <SCORE.INTER.REPUL>
0.260054

>  <SCORE.INTER.ROT>
1

>  <SCORE.INTER.VDW>
-10.9806

>  <SCORE.INTER.norm>
-1.13042

>  <SCORE.INTRA>
-1.90891

>  <SCORE.INTRA.DIHEDRAL>
-3.99973

>  <SCORE.INTRA.DIHEDRAL.0>
5.02738

>  <SCORE.INTRA.POLAR>
0

>  <SCORE.INTRA.POLAR.0>
0

>  <SCORE.INTRA.REPUL>
0

>  <SCORE.INTRA.REPUL.0>
0

>  <SCORE.INTRA.VDW>
0.0909601

>  <SCORE.INTRA.VDW.0>
-0.709724

>  <SCORE.INTRA.norm>
-0.190891

>  <SCORE.RESTR>
0.285268

>  <SCORE.RESTR.CAVITY>
0.285268

>  <SCORE.RESTR.norm>
0.0285268

>  <SCORE.SYSTEM>
-9.54598

>  <SCORE.SYSTEM.CONST>
0

>  <SCORE.SYSTEM.DIHEDRAL>
1.58212

>  <SCORE.SYSTEM.POLAR>
-2.80201

>  <SCORE.SYSTEM.REPUL>
0.0572653

>  <SCORE.SYSTEM.VDW>
-1.09651

>  <SCORE.SYSTEM.norm>
-0.954598

>  <SCORE.heavy>
10

>  <SCORE.norm>
-2.24738

$$$$

  rDOCK(R)          3D
libRbt.so/2013.1/901 2013/11/27
 14 14  0  0  0  0  0  0  0  0999 V2000
   29.8975   26.6623   23.2660 C   0  0  0  0  0  0
   30.8854   27.3861   23.9545 O   0  0  0  0  0  0
   29.6871   27.2017   21.9761 O   0  0  0  0  0  0
   29.6319   26.1233   21.0658 C   0  0  0  0  0  0
   28.4268   26.2860   20.1309 C   0  0  0  0  0  0
   28.2343   25.1219   19.3738 O   0  0  0  0  0  0
   29.5686   24.8166   21.8522 C   0  0  0  0  0  0
   30.2294   23.7833   21.1682 O   0  0  0  0  0  0
   30.2536   25.1836   23.1450 C   0  0  0  0  0  0
   31.6469   25.0167   23.0416 O   0  0  0  0  0  0
   30.5667   28.3234   24.0316 H   0  0  0  0  0  0
   27.4460   25.2875   18.7932 H   0  0  0  0  0  0
   31.1808   24.0579   21.0978 H   0  0  0  0  0  0
   31.8157   24.0390   23.0100 H   0  0  0  0  0  0
  1  2  1  0  0  0
  1  3  1  0  0  0
  3  4  1  0  0  0
  4  5  1  0  0  0
  5  6  1  0  0  0
  4  7  1  0  0  0
  7  8  1  0  0  0
  7  9  1  0  0  0
  9 10  1  0  0  0
  9  1  1  0  0  0
  2 11  1  0  0  0
  6 12  1  0  0  0
  8 13  1  0  0  0
 10 14  1  0  0  0
M  END
>  <CHROM.0>
-46.93974968,-56.94037056,-166.78245100,63.51639615,-10.45652620,72.22508620
-54.22763936

>  <CHROM.1>
60.21955341,-170.33532182,179.96746097,62.42546318,177.36389690,29.87636698
25.74721755,21.88167454,0.67582805,-0.87083631,0.49391753

>  <RI>
2.0787e+07

>  <Rbt.Current_Directory>
/extra/banzai2/j5wagner/CELPP/2016_10_17_rdock_implementation/normal_run/tutorialVideo/tutorial_rdock_implementation/full_week_run/4-docking/5m93/LMCSS_1ogw_docking

>  <Rbt.Executable>
rbdock ($Id: //depot/dev/client3/rdock/2013.1/src/exe/rbdock.cxx#4 $)

>  <Rbt.Library>
libRbt.so (2013.1, Build901 2013/11/27)

>  <Rbt.Parameter_File>
/home/j5wagner/env_00/source/rDock/rDock_2013.1_src//data/scripts/dock.prm

>  <Rbt.Receptor>
/extra/banzai2/j5wagner/CELPP/2016_10_17_rdock_implementation/normal_run/tutorialVideo/tutorial_rdock_implementation/full_week_run/4-docking/5m93/LMCSS_1ogw_tech_prep/rDockGridGenInput.prm

>  <SCORE>
-22.3526

>  <SCORE.INTER>
-11.6842

>  <SCORE.INTER.CONST>
1

>  <SCORE.INTER.POLAR>
-2.57663

>  <SCORE.INTER.REPUL>
0.0192788

>  <SCORE.INTER.ROT>
1

>  <SCORE.INTER.VDW>
-9.42003

>  <SCORE.INTER.norm>
-1.16842

>  <SCORE.INTRA>
-1.50202

>  <SCORE.INTRA.DIHEDRAL>
-4.28254

>  <SCORE.INTRA.DIHEDRAL.0>
5.02738

>  <SCORE.INTRA.POLAR>
0

>  <SCORE.INTRA.POLAR.0>
0

>  <SCORE.INTRA.REPUL>
0

>  <SCORE.INTRA.REPUL.0>
0

>  <SCORE.INTRA.VDW>
0.63925

>  <SCORE.INTRA.VDW.0>
-0.709724

>  <SCORE.INTRA.norm>
-0.150202

>  <SCORE.RESTR>
0.0424232

>  <SCORE.RESTR.CAVITY>
0.0424232

>  <SCORE.RESTR.norm>
0.00424232

>  <SCORE.SYSTEM>
-9.20883

>  <SCORE.SYSTEM.CONST>
0

>  <SCORE.SYSTEM.DIHEDRAL>
1.93477

>  <SCORE.SYSTEM.POLAR>
-3.17757

>  <SCORE.SYSTEM.REPUL>
0.03187

>  <SCORE.SYSTEM.VDW>
0.468169

>  <SCORE.SYSTEM.norm>
-0.920883

>  <SCORE.heavy>
10

>  <SCORE.norm>
-2.23526

$$$$

  rDOCK(R)          3D
libRbt.so/2013.1/901 2013/11/27
 14 14  0  0  0  0  0  0  0  0999 V2000
   30.1139   27.1607   23.4358 C   0  0  0  0  0  0
   31.1381   28.0860   23.6983 O   0  0  0  0  0  0
   29.7425   27.1962   22.0721 O   0  0  0  0  0  0
   29.6362   25.8612   21.6234 C   0  0  0  0  0  0
   28.3314   25.6729   20.8393 C   0  0  0  0  0  0
   28.4085   26.3211   19.5986 O   0  0  0  0  0  0
   29.7146   24.9279   22.8287 C   0  0  0  0  0  0
   30.3418   23.7179   22.4901 O   0  0  0  0  0  0
   30.5185   25.7391   23.8141 C   0  0  0  0  0  0
   31.8985   25.5478   23.6165 O   0  0  0  0  0  0
   31.8487   27.9424   23.0196 H   0  0  0  0  0  0
   27.5302   26.1902   19.1544 H   0  0  0  0  0  0
   31.2418   23.9560   22.1454 H   0  0  0  0  0  0
   32.1015   24.6189   23.9017 H   0  0  0  0  0  0
  1  2  1  0  0  0
  1  3  1  0  0  0
  3  4  1  0  0  0
  4  5  1  0  0  0
  5  6  1  0  0  0
  4  7  1  0  0  0
  7  8  1  0  0  0
  7  9  1  0  0  0
  9 10  1  0  0  0
  9  1  1  0  0  0
  2 11  1  0  0  0
  6 12  1  0  0  0
  8 13  1  0  0  0
 10 14  1  0  0  0
M  END
>  <CHROM.0>
-166.30637664,-56.49001354,-48.12078637,-57.38994042,-7.75614494,71.89693094
-54.80634211

>  <CHROM.1>
-49.97480030,71.49401325,-178.13190368,57.90811854,178.50112922,30.02391329
26.02641107,22.37132697,0.16188063,-0.89861808,0.06285444

>  <RI>
2.0787e+07

>  <Rbt.Current_Directory>
/extra/banzai2/j5wagner/CELPP/2016_10_17_rdock_implementation/normal_run/tutorialVideo/tutorial_rdock_implementation/full_week_run/4-docking/5m93/LMCSS_1ogw_docking

>  <Rbt.Executable>
rbdock ($Id: //depot/dev/client3/rdock/2013.1/src/exe/rbdock.cxx#4 $)

>  <Rbt.Library>
libRbt.so (2013.1, Build901 2013/11/27)

>  <Rbt.Parameter_File>
/home/j5wagner/env_00/source/rDock/rDock_2013.1_src//data/scripts/dock.prm

>  <Rbt.Receptor>
/extra/banzai2/j5wagner/CELPP/2016_10_17_rdock_implementation/normal_run/tutorialVideo/tutorial_rdock_implementation/full_week_run/4-docking/5m93/LMCSS_1ogw_tech_prep/rDockGridGenInput.prm

>  <SCORE>
-22.1484

>  <SCORE.INTER>
-11.9275

>  <SCORE.INTER.CONST>
1

>  <SCORE.INTER.POLAR>
-2.40105

>  <SCORE.INTER.REPUL>
0.275957

>  <SCORE.INTER.ROT>
1

>  <SCORE.INTER.VDW>
-11.5437

>  <SCORE.INTER.norm>
-1.19275

>  <SCORE.INTRA>
-1.44641

>  <SCORE.INTRA.DIHEDRAL>
-3.68019

>  <SCORE.INTRA.DIHEDRAL.0>
5.02738

>  <SCORE.INTRA.POLAR>
0

>  <SCORE.INTRA.POLAR.0>
0

>  <SCORE.INTRA.REPUL>
0

>  <SCORE.INTRA.REPUL.0>
0

>  <SCORE.INTRA.VDW>
0.393692

>  <SCORE.INTRA.VDW.0>
-0.709724

>  <SCORE.INTRA.norm>
-0.144641

>  <SCORE.RESTR>
0.281753

>  <SCORE.RESTR.CAVITY>
0.281753

>  <SCORE.RESTR.norm>
0.0281753

>  <SCORE.SYSTEM>
-9.05621

>  <SCORE.SYSTEM.CONST>
0

>  <SCORE.SYSTEM.DIHEDRAL>
1.75917

>  <SCORE.SYSTEM.POLAR>
-3.11324

>  <SCORE.SYSTEM.REPUL>
0.0271458

>  <SCORE.SYSTEM.VDW>
0.513485

>  <SCORE.SYSTEM.norm>
-0.905621

>  <SCORE.heavy>
10

>  <SCORE.norm>
-2.21484

$$$$

  rDOCK(R)          3D
libRbt.so/2013.1/901 2013/11/27
 14 14  0  0  0  0  0  0  0  0999 V2000
   24.9194   26.8515   19.3008 C   0  0  0  0  0  0
   23.5334   26.6411   19.2069 O   0  0  0  0  0  0
   25.5611   25.7256   19.8659 O   0  0  0  0  0  0
   26.7097   25.4544   19.0901 C   0  0  0  0  0  0
   27.9203   25.2293   20.0047 C   0  0  0  0  0  0
   28.4427   26.4568   20.4357 O   0  0  0  0  0  0
   26.9362   26.6128   18.1224 C   0  0  0  0  0  0
   27.4951   26.1607   16.9159 O   0  0  0  0  0  0
   25.5427   27.1618   17.9433 C   0  0  0  0  0  0
   24.8610   26.4806   16.9180 O   0  0  0  0  0  0
   23.3956   25.7850   18.7228 H   0  0  0  0  0  0
   27.7045   26.9332   20.8984 H   0  0  0  0  0  0
   26.8527   25.5048   16.5383 H   0  0  0  0  0  0
   25.2732   26.7674   16.0617 H   0  0  0  0  0  0
  1  2  1  0  0  0
  1  3  1  0  0  0
  3  4  1  0  0  0
  4  5  1  0  0  0
  5  6  1  0  0  0
  4  7  1  0  0  0
  7  8  1  0  0  0
  7  9  1  0  0  0
  9 10  1  0  0  0
  9  1  1  0  0  0
  2 11  1  0  0  0
  6 12  1  0  0  0
  8 13  1  0  0  0
 10 14  1  0  0  0
M  END
>  <CHROM.0>
75.61955876,172.40023817,71.82621796,-55.96369628,-176.98607057,72.59763188
64.44925687

>  <CHROM.1>
-53.17514603,-79.95789432,57.75098533,59.25702664,176.43037259,26.17222335
26.27116864,18.75800487,2.71104266,0.14740607,-1.44833900

>  <RI>
2.0787e+07

>  <Rbt.Current_Directory>
/extra/banzai2/j5wagner/CELPP/2016_10_17_rdock_implementation/normal_run/tutorialVideo/tutorial_rdock_implementation/full_week_run/4-docking/5m93/LMCSS_1ogw_docking

>  <Rbt.Executable>
rbdock ($Id: //depot/dev/client3/rdock/2013.1/src/exe/rbdock.cxx#4 $)

>  <Rbt.Library>
libRbt.so (2013.1, Build901 2013/11/27)

>  <Rbt.Parameter_File>
/home/j5wagner/env_00/source/rDock/rDock_2013.1_src//data/scripts/dock.prm

>  <Rbt.Receptor>
/extra/banzai2/j5wagner/CELPP/2016_10_17_rdock_implementation/normal_run/tutorialVideo/tutorial_rdock_implementation/full_week_run/4-docking/5m93/LMCSS_1ogw_tech_prep/rDockGridGenInput.prm

>  <SCORE>
-22.0814

>  <SCORE.INTER>
-9.83616

>  <SCORE.INTER.CONST>
1

>  <SCORE.INTER.POLAR>
-0.971605

>  <SCORE.INTER.REPUL>
0.0298042

>  <SCORE.INTER.ROT>
1

>  <SCORE.INTER.VDW>
-13.0817

>  <SCORE.INTER.norm>
-0.983616

>  <SCORE.INTRA>
-0.804987

>  <SCORE.INTRA.DIHEDRAL>
-3.03795

>  <SCORE.INTRA.DIHEDRAL.0>
5.02738

>  <SCORE.INTRA.POLAR>
0

>  <SCORE.INTRA.POLAR.0>
0

>  <SCORE.INTRA.REPUL>
0

>  <SCORE.INTRA.REPUL.0>
0

>  <SCORE.INTRA.VDW>
0.713986

>  <SCORE.INTRA.VDW.0>
-0.709724

>  <SCORE.INTRA.norm>
-0.0804987

>  <SCORE.RESTR>
0

>  <SCORE.RESTR.CAVITY>
0

>  <SCORE.RESTR.norm>
0

>  <SCORE.SYSTEM>
-11.4403

>  <SCORE.SYSTEM.CONST>
0

>  <SCORE.SYSTEM.DIHEDRAL>
2.09652

>  <SCORE.SYSTEM.POLAR>
-3.32952

>  <SCORE.SYSTEM.VDW>
-1.16816

>  <SCORE.SYSTEM.norm>
-1.14403

>  <SCORE.heavy>
10

>  <SCORE.norm>
-2.20814

$$$$

  rDOCK(R)          3D
libRbt.so/2013.1/901 2013/11/27
 14 14  0  0  0  0  0  0  0  0999 V2000
   30.8208   27.0930   23.4680 C   0  0  0  0  0  0
   32.1843   27.4066   23.5967 O   0  0  0  0  0  0
   30.4416   27.0505   22.1066 O   0  0  0  0  0  0
   29.6532   25.8939   21.9185 C   0  0  0  0  0  0
   28.3891   26.2433   21.1233 C   0  0  0  0  0  0
   28.6746   26.3020   19.7519 O   0  0  0  0  0  0
   29.3193   25.2972   23.2832 C   0  0  0  0  0  0
   29.2327   23.8972   23.2144 O   0  0  0  0  0  0
   30.4760   25.7631   24.1318 C   0  0  0  0  0  0
   31.5590   24.8692   24.0415 O   0  0  0  0  0  0
   32.3515   28.2271   23.0630 H   0  0  0  0  0  0
   27.8188   26.5071   19.2920 H   0  0  0  0  0  0
   28.9802   23.5873   24.1231 H   0  0  0  0  0  0
   31.7156   24.7074   23.0748 H   0  0  0  0  0  0
  1  2  1  0  0  0
  1  3  1  0  0  0
  3  4  1  0  0  0
  4  5  1  0  0  0
  5  6  1  0  0  0
  4  7  1  0  0  0
  7  8  1  0  0  0
  7  9  1  0  0  0
  9 10  1  0  0  0
  9  1  1  0  0  0
  2 11  1  0  0  0
  6 12  1  0  0  0
  8 13  1  0  0  0
 10 14  1  0  0  0
M  END
>  <CHROM.0>
-163.07946782,173.88436465,-47.99060663,62.09495533,-171.87922538,72.01105268
64.47470790

>  <CHROM.1>
51.63885888,81.03770827,178.56078880,-177.85596058,-62.17739645,30.10162241
25.96974024,22.63381165,-0.52638011,-0.73066175,-0.71642055

>  <RI>
2.0787e+07

>  <Rbt.Current_Directory>
/extra/banzai2/j5wagner/CELPP/2016_10_17_rdock_implementation/normal_run/tutorialVideo/tutorial_rdock_implementation/full_week_run/4-docking/5m93/LMCSS_1ogw_docking

>  <Rbt.Executable>
rbdock ($Id: //depot/dev/client3/rdock/2013.1/src/exe/rbdock.cxx#4 $)

>  <Rbt.Library>
libRbt.so (2013.1, Build901 2013/11/27)

>  <Rbt.Parameter_File>
/home/j5wagner/env_00/source/rDock/rDock_2013.1_src//data/scripts/dock.prm

>  <Rbt.Receptor>
/extra/banzai2/j5wagner/CELPP/2016_10_17_rdock_implementation/normal_run/tutorialVideo/tutorial_rdock_implementation/full_week_run/4-docking/5m93/LMCSS_1ogw_tech_prep/rDockGridGenInput.prm

>  <SCORE>
-22.0525

>  <SCORE.INTER>
-11.0809

>  <SCORE.INTER.CONST>
1

>  <SCORE.INTER.POLAR>
-3.1713

>  <SCORE.INTER.REPUL>
0.00161521

>  <SCORE.INTER.ROT>
1

>  <SCORE.INTER.VDW>
-6.70659

>  <SCORE.INTER.norm>
-1.10809

>  <SCORE.INTRA>
-0.95342

>  <SCORE.INTRA.DIHEDRAL>
-2.84016

>  <SCORE.INTRA.DIHEDRAL.0>
5.02738

>  <SCORE.INTRA.POLAR>
0

>  <SCORE.INTRA.POLAR.0>
0

>  <SCORE.INTRA.REPUL>
0

>  <SCORE.INTRA.REPUL.0>
0

>  <SCORE.INTRA.VDW>
0.466662

>  <SCORE.INTRA.VDW.0>
-0.709724

>  <SCORE.INTRA.norm>
-0.095342

>  <SCORE.RESTR>
0.595656

>  <SCORE.RESTR.CAVITY>
0.595656

>  <SCORE.RESTR.norm>
0.0595656

>  <SCORE.SYSTEM>
-10.6138

>  <SCORE.SYSTEM.CONST>
0

>  <SCORE.SYSTEM.DIHEDRAL>
2.08905

>  <SCORE.SYSTEM.POLAR>
-3.0918

>  <SCORE.SYSTEM.VDW>
-1.14625

>  <SCORE.SYSTEM.norm>
-1.06138

>  <SCORE.heavy>
10

>  <SCORE.norm>
-2.20525

$$$$

  rDOCK(R)          3D
libRbt.so/2013.1/901 2013/11/27
 14 14  0  0  0  0  0  0  0  0999 V2000
   24.4018   25.6636   18.8207 C   0  0  0  0  0  0
   23.7620   25.6144   20.0706 O   0  0  0  0  0  0
   24.6211   27.0019   18.4211 O   0  0  0  0  0  0
   25.9430   27.0905   17.9316 C   0  0  0  0  0  0
   25.9592   27.8452   16.5964 C   0  0  0  0  0  0
   25.5661   29.1779   16.7830 O   0  0  0  0  0  0
   26.5139   25.6816   17.7950 C   0  0  0  0  0  0
   27.8951   25.6698   18.0487 O   0  0  0  0  0  0
   25.7302   24.9132   18.8298 C   0  0  0  0  0  0
   26.3415   25.0038   20.0939 O   0  0  0  0  0  0
   23.6374   24.6569   20.3026 H   0  0  0  0  0  0
   26.2512   29.5974   17.3665 H   0  0  0  0  0  0
   28.3109   26.2532   17.3615 H   0  0  0  0  0  0
   27.2419   24.5954   20.0055 H   0  0  0  0  0  0
  1  2  1  0  0  0
  1  3  1  0  0  0
  3  4  1  0  0  0
  4  5  1  0  0  0
  5  6  1  0  0  0
  4  7  1  0  0  0
  7  8  1  0  0  0
  7  9  1  0  0  0
  9 10  1  0  0  0
  9  1  1  0  0  0
  2 11  1  0  0  0
  6 12  1  0  0  0
  8 13  1  0  0  0
 10 14  1  0  0  0
M  END
>  <CHROM.0>
73.57585123,172.88363648,71.24870200,-56.06151604,176.57545877,71.46855487
62.78265042

>  <CHROM.1>
-179.74120950,65.26152265,63.81214254,-61.64920557,-173.31526546,25.69016768
26.38635015,18.37283490,1.72468552,-0.34844269,2.48205539

>  <RI>
2.0787e+07

>  <Rbt.Current_Directory>
/extra/banzai2/j5wagner/CELPP/2016_10_17_rdock_implementation/normal_run/tutorialVideo/tutorial_rdock_implementation/full_week_run/4-docking/5m93/LMCSS_1ogw_docking

>  <Rbt.Executable>
rbdock ($Id: //depot/dev/client3/rdock/2013.1/src/exe/rbdock.cxx#4 $)

>  <Rbt.Library>
libRbt.so (2013.1, Build901 2013/11/27)

>  <Rbt.Parameter_File>
/home/j5wagner/env_00/source/rDock/rDock_2013.1_src//data/scripts/dock.prm

>  <Rbt.Receptor>
/extra/banzai2/j5wagner/CELPP/2016_10_17_rdock_implementation/normal_run/tutorialVideo/tutorial_rdock_implementation/full_week_run/4-docking/5m93/LMCSS_1ogw_tech_prep/rDockGridGenInput.prm

>  <SCORE>
-22.0374

>  <SCORE.INTER>
-8.87731

>  <SCORE.INTER.CONST>
1

>  <SCORE.INTER.POLAR>
0

>  <SCORE.INTER.REPUL>
0

>  <SCORE.INTER.ROT>
1

>  <SCORE.INTER.VDW>
-15.2773

>  <SCORE.INTER.norm>
-0.887731

>  <SCORE.INTRA>
-1.68271

>  <SCORE.INTRA.DIHEDRAL>
-4.28288

>  <SCORE.INTRA.DIHEDRAL.0>
5.02738

>  <SCORE.INTRA.POLAR>
0

>  <SCORE.INTRA.POLAR.0>
0

>  <SCORE.INTRA.REPUL>
0

>  <SCORE.INTRA.REPUL.0>
0

>  <SCORE.INTRA.VDW>
0.458726

>  <SCORE.INTRA.VDW.0>
-0.709724

>  <SCORE.INTRA.norm>
-0.168271

>  <SCORE.RESTR>
0

>  <SCORE.RESTR.CAVITY>
0

>  <SCORE.RESTR.norm>
0

>  <SCORE.SYSTEM>
-11.4774

>  <SCORE.SYSTEM.CONST>
0

>  <SCORE.SYSTEM.DIHEDRAL>
1.71516

>  <SCORE.SYSTEM.POLAR>
-3.30615

>  <SCORE.SYSTEM.VDW>
-1.09405

>  <SCORE.SYSTEM.norm>
-1.14774

>  <SCORE.heavy>
10

>  <SCORE.norm>
-2.20374

$$$$

  rDOCK(R)          3D
libRbt.so/2013.1/901 2013/11/27
 14 14  0  0  0  0  0  0  0  0999 V2000
   30.8257   27.1409   23.5014 C   0  0  0  0  0  0
   32.1819   27.4736   23.6567 O   0  0  0  0  0  0
   30.4565   27.1620   22.1368 O   0  0  0  0  0  0
   29.6922   26.0017   21.8830 C   0  0  0  0  0  0
   28.4268   26.3677   21.0973 C   0  0  0  0  0  0
   27.7124   25.2112   20.7543 O   0  0  0  0  0  0
   29.3610   25.3286   23.2123 C   0  0  0  0  0  0
   29.3024   23.9326   23.0703 O   0  0  0  0  0  0
   30.5027   25.7720   24.0927 C   0  0  0  0  0  0
   31.6035   24.9050   23.9645 O   0  0  0  0  0  0
   32.3486   28.2950   23.1241 H   0  0  0  0  0  0
   26.9074   25.5114   20.2565 H   0  0  0  0  0  0
   29.0368   23.5721   23.9563 H   0  0  0  0  0  0
   32.3889   25.3837   24.3379 H   0  0  0  0  0  0
  1  2  1  0  0  0
  1  3  1  0  0  0
  3  4  1  0  0  0
  4  5  1  0  0  0
  5  6  1  0  0  0
  4  7  1  0  0  0
  7  8  1  0  0  0
  7  9  1  0  0  0
  9 10  1  0  0  0
  9  1  1  0  0  0
  2 11  1  0  0  0
  6 12  1  0  0  0
  8 13  1  0  0  0
 10 14  1  0  0  0
M  END
>  <CHROM.0>
75.60701532,172.04843609,71.88460547,-56.73794293,-170.34806140,-170.77838210
176.41068087

>  <CHROM.1>
48.40477400,175.61022145,179.64085738,-177.04169280,51.70282514,30.02462134
25.90692735,22.72877516,-0.03954215,-0.67918449,-0.51851148

>  <RI>
2.0787e+07

>  <Rbt.Current_Directory>
/extra/banzai2/j5wagner/CELPP/2016_10_17_rdock_implementation/normal_run/tutorialVideo/tutorial_rdock_implementation/full_week_run/4-docking/5m93/LMCSS_1ogw_docking

>  <Rbt.Executable>
rbdock ($Id: //depot/dev/client3/rdock/2013.1/src/exe/rbdock.cxx#4 $)

>  <Rbt.Library>
libRbt.so (2013.1, Build901 2013/11/27)

>  <Rbt.Parameter_File>
/home/j5wagner/env_00/source/rDock/rDock_2013.1_src//data/scripts/dock.prm

>  <Rbt.Receptor>
/extra/banzai2/j5wagner/CELPP/2016_10_17_rdock_implementation/normal_run/tutorialVideo/tutorial_rdock_implementation/full_week_run/4-docking/5m93/LMCSS_1ogw_tech_prep/rDockGridGenInput.prm

>  <SCORE>
-21.5979

>  <SCORE.INTER>
-10.6723

>  <SCORE.INTER.CONST>
1

>  <SCORE.INTER.POLAR>
-3.07835

>  <SCORE.INTER.REPUL>
0

>  <SCORE.INTER.ROT>
1

>  <SCORE.INTER.VDW>
-6.60589

>  <SCORE.INTER.norm>
-1.06723

>  <SCORE.INTRA>
-1.82675

>  <SCORE.INTRA.DIHEDRAL>
-3.60298

>  <SCORE.INTRA.DIHEDRAL.0>
5.02738

>  <SCORE.INTRA.POLAR>
-0.0908623

>  <SCORE.INTRA.POLAR.0>
0

>  <SCORE.INTRA.REPUL>
0

>  <SCORE.INTRA.REPUL.0>
0

>  <SCORE.INTRA.VDW>
0.283673

>  <SCORE.INTRA.VDW.0>
-0.709724

>  <SCORE.INTRA.norm>
-0.182675

>  <SCORE.RESTR>
0.452854

>  <SCORE.RESTR.CAVITY>
0.452854

>  <SCORE.RESTR.norm>
0.0452854

>  <SCORE.SYSTEM>
-9.55169

>  <SCORE.SYSTEM.CONST>
0

>  <SCORE.SYSTEM.DIHEDRAL>
1.85595

>  <SCORE.SYSTEM.POLAR>
-3.03243

>  <SCORE.SYSTEM.REPUL>
0.0211734

>  <SCORE.SYSTEM.VDW>
-0.275281

>  <SCORE.SYSTEM.norm>
-0.955169

>  <SCORE.heavy>
10

>  <SCORE.norm>
-2.15979

$$$$

  rDOCK(R)          3D
libRbt.so/2013.1/901 2013/11/27
 14 14  0  0  0  0  0  0  0  0999 V2000
   25.2336   26.9045   18.3908 C   0  0  0  0  0  0
   25.4049   26.7584   19.7776 O   0  0  0  0  0  0
   25.5276   28.2265   17.9850 O   0  0  0  0  0  0
   26.3279   28.1491   16.8238 C   0  0  0  0  0  0
   25.7946   29.1093   15.7532 C   0  0  0  0  0  0
   26.5640   29.0154   14.5850 O   0  0  0  0  0  0
   26.3461   26.7039   16.3327 C   0  0  0  0  0  0
   27.5790   26.3881   15.7390 O   0  0  0  0  0  0
   26.1011   25.9277   17.6026 C   0  0  0  0  0  0
   27.3082   25.6786   18.2814 O   0  0  0  0  0  0
   24.7825   27.3921   20.2217 H   0  0  0  0  0  0
   26.1681   29.6502   13.9321 H   0  0  0  0  0  0
   27.7227   27.0567   15.0195 H   0  0  0  0  0  0
   27.0658   25.2836   19.1592 H   0  0  0  0  0  0
  1  2  1  0  0  0
  1  3  1  0  0  0
  3  4  1  0  0  0
  4  5  1  0  0  0
  5  6  1  0  0  0
  4  7  1  0  0  0
  7  8  1  0  0  0
  7  9  1  0  0  0
  9 10  1  0  0  0
  9  1  1  0  0  0
  2 11  1  0  0  0
  6 12  1  0  0  0
  8 13  1  0  0  0
 10 14  1  0  0  0
M  END
>  <CHROM.0>
-164.77583143,-54.14986287,71.95788025,-56.50762531,-9.25565920,-173.45256301
64.92091826

>  <CHROM.1>
60.14786795,-178.57801164,179.54193038,-55.73328540,60.45041948,26.24728411
27.29275793,17.13125702,1.78593381,-0.90348571,2.25671448

>  <RI>
2.0787e+07

>  <Rbt.Current_Directory>
/extra/banzai2/j5wagner/CELPP/2016_10_17_rdock_implementation/normal_run/tutorialVideo/tutorial_rdock_implementation/full_week_run/4-docking/5m93/LMCSS_1ogw_docking

>  <Rbt.Executable>
rbdock ($Id: //depot/dev/client3/rdock/2013.1/src/exe/rbdock.cxx#4 $)

>  <Rbt.Library>
libRbt.so (2013.1, Build901 2013/11/27)

>  <Rbt.Parameter_File>
/home/j5wagner/env_00/source/rDock/rDock_2013.1_src//data/scripts/dock.prm

>  <Rbt.Receptor>
/extra/banzai2/j5wagner/CELPP/2016_10_17_rdock_implementation/normal_run/tutorialVideo/tutorial_rdock_implementation/full_week_run/4-docking/5m93/LMCSS_1ogw_tech_prep/rDockGridGenInput.prm

>  <SCORE>
-21.5653

>  <SCORE.INTER>
-9.03769

>  <SCORE.INTER.CONST>
1

>  <SCORE.INTER.POLAR>
-0.854107

>  <SCORE.INTER.REPUL>
0

>  <SCORE.INTER.ROT>
1

>  <SCORE.INTER.VDW>
-12.5337

>  <SCORE.INTER.norm>
-0.903769

>  <SCORE.INTRA>
-2.99523

>  <SCORE.INTRA.DIHEDRAL>
-4.57456

>  <SCORE.INTRA.DIHEDRAL.0>
5.02738

>  <SCORE.INTRA.POLAR>
-0.306363

>  <SCORE.INTRA.POLAR.0>
0

>  <SCORE.INTRA.REPUL>
0

>  <SCORE.INTRA.REPUL.0>
0

>  <SCORE.INTRA.VDW>
0.333683

>  <SCORE.INTRA.VDW.0>
-0.709724

>  <SCORE.INTRA.norm>
-0.299523

>  <SCORE.RESTR>
0

>  <SCORE.RESTR.CAVITY>
0

>  <SCORE.RESTR.norm>
0

>  <SCORE.SYSTEM>
-9.53237

>  <SCORE.SYSTEM.CONST>
0

>  <SCORE.SYSTEM.DIHEDRAL>
1.53903

>  <SCORE.SYSTEM.POLAR>
-3.03334

>  <SCORE.SYSTEM.REPUL>
0.0612087

>  <SCORE.SYSTEM.VDW>
-0.294571

>  <SCORE.SYSTEM.norm>
-0.953237

>  <SCORE.heavy>
10

>  <SCORE.norm>
-2.15653

$$$$

  rDOCK(R)          3D
libRbt.so/2013.1/901 2013/11/27
 14 14  0  0  0  0  0  0  0  0999 V2000
   30.7778   27.1965   23.5586 C   0  0  0  0  0  0
   32.1044   27.6078   23.7703 O   0  0  0  0  0  0
   30.4536   27.2346   22.1830 O   0  0  0  0  0  0
   29.7726   26.0372   21.8712 C   0  0  0  0  0  0
   28.5135   26.3469   21.0518 C   0  0  0  0  0  0
   27.8957   25.1590   20.6364 O   0  0  0  0  0  0
   29.4402   25.3063   23.1693 C   0  0  0  0  0  0
   29.4741   23.9141   22.9877 O   0  0  0  0  0  0
   30.5218   25.7936   24.1009 C   0  0  0  0  0  0
   31.6786   25.0004   23.9881 O   0  0  0  0  0  0
   32.2935   28.3415   23.1283 H   0  0  0  0  0  0
   27.0845   25.4230   20.1283 H   0  0  0  0  0  0
   29.2263   23.5118   23.8608 H   0  0  0  0  0  0
   32.4068   25.4900   24.4521 H   0  0  0  0  0  0
  1  2  1  0  0  0
  1  3  1  0  0  0
  3  4  1  0  0  0
  4  5  1  0  0  0
  5  6  1  0  0  0
  4  7  1  0  0  0
  7  8  1  0  0  0
  7  9  1  0  0  0
  9 10  1  0  0  0
  9  1  1  0  0  0
  2 11  1  0  0  0
  6 12  1  0  0  0
  8 13  1  0  0  0
 10 14  1  0  0  0
M  END
>  <CHROM.0>
-165.02192024,172.36633533,-71.99508938,-57.62668677,-12.38006652,71.66479390
-54.93294740

>  <CHROM.1>
37.12650978,174.75424784,179.02918144,-178.54176632,55.20493683,30.08353033
25.93751737,22.72291622,0.00678728,-0.74008109,-0.45985872

>  <RI>
2.0787e+07

>  <Rbt.Current_Directory>
/extra/banzai2/j5wagner/CELPP/2016_10_17_rdock_implementation/normal_run/tutorialVideo/tutorial_rdock_implementation/full_week_run/4-docking/5m93/LMCSS_1ogw_docking

>  <Rbt.Executable>
rbdock ($Id: //depot/dev/client3/rdock/2013.1/src/exe/rbdock.cxx#4 $)

>  <Rbt.Library>
libRbt.so (2013.1, Build901 2013/11/27)

>  <Rbt.Parameter_File>
/home/j5wagner/env_00/source/rDock/rDock_2013.1_src//data/scripts/dock.prm

>  <Rbt.Receptor>
/extra/banzai2/j5wagner/CELPP/2016_10_17_rdock_implementation/normal_run/tutorialVideo/tutorial_rdock_implementation/full_week_run/4-docking/5m93/LMCSS_1ogw_tech_prep/rDockGridGenInput.prm

>  <SCORE>
-21.5361

>  <SCORE.INTER>
-12.2746

>  <SCORE.INTER.CONST>
1

>  <SCORE.INTER.POLAR>
-3.35194

>  <SCORE.INTER.REPUL>
0

>  <SCORE.INTER.ROT>
1

>  <SCORE.INTER.VDW>
-7.27795

>  <SCORE.INTER.norm>
-1.22746

>  <SCORE.INTRA>
-0.997433

>  <SCORE.INTRA.DIHEDRAL>
-2.1733

>  <SCORE.INTRA.DIHEDRAL.0>
5.02738

>  <SCORE.INTRA.POLAR>
-0.0426303

>  <SCORE.INTRA.POLAR.0>
0

>  <SCORE.INTRA.REPUL>
0

>  <SCORE.INTRA.REPUL.0>
0

>  <SCORE.INTRA.VDW>
0.23416

>  <SCORE.INTRA.VDW.0>
-0.709724

>  <SCORE.INTRA.norm>
-0.0997433

>  <SCORE.RESTR>
0.465415

>  <SCORE.RESTR.CAVITY>
0.465415

>  <SCORE.RESTR.norm>
0.0465415

>  <SCORE.SYSTEM>
-8.72958

>  <SCORE.SYSTEM.CONST>
0

>  <SCORE.SYSTEM.DIHEDRAL>
2.16902

>  <SCORE.SYSTEM.POLAR>
-2.81179

>  <SCORE.SYSTEM.REPUL>
0.035166

>  <SCORE.SYSTEM.VDW>
-0.429833

>  <SCORE.SYSTEM.norm>
-0.872958

>  <SCORE.heavy>
10

>  <SCORE.norm>
-2.15361

$$$$

  rDOCK(R)          3D
libRbt.so/2013.1/901 2013/11/27
 14 14  0  0  0  0  0  0  0  0999 V2000
   23.9796   25.5665   18.3943 C   0  0  0  0  0  0
   22.9512   25.2818   19.3083 O   0  0  0  0  0  0
   24.2613   26.9518   18.3709 O   0  0  0  0  0  0
   25.6653   27.1029   18.3982 C   0  0  0  0  0  0
   26.1059   28.1121   17.3306 C   0  0  0  0  0  0
   25.8337   27.6169   16.0475 O   0  0  0  0  0  0
   26.3126   25.7363   18.1900 C   0  0  0  0  0  0
   27.5207   25.6367   18.8991 O   0  0  0  0  0  0
   25.2565   24.7950   18.7136 C   0  0  0  0  0  0
   25.3898   24.6110   20.1022 O   0  0  0  0  0  0
   23.2512   25.5983   20.2004 H   0  0  0  0  0  0
   24.8523   27.4736   16.0004 H   0  0  0  0  0  0
   27.8851   24.7338   18.7058 H   0  0  0  0  0  0
   26.2208   24.0864   20.2421 H   0  0  0  0  0  0
  1  2  1  0  0  0
  1  3  1  0  0  0
  3  4  1  0  0  0
  4  5  1  0  0  0
  5  6  1  0  0  0
  4  7  1  0  0  0
  7  8  1  0  0  0
  7  9  1  0  0  0
  9 10  1  0  0  0
  9  1  1  0  0  0
  2 11  1  0  0  0
  6 12  1  0  0  0
  8 13  1  0  0  0
 10 14  1  0  0  0
M  END
>  <CHROM.0>
75.33876642,171.71605811,71.53505516,62.84555111,-10.26216132,71.94458344
64.45767397

>  <CHROM.1>
-58.67866149,-65.29875511,60.23434543,-179.22501772,178.55921723,25.32537996
26.12432643,18.39641000,2.01041858,-0.04608592,2.39865167

>  <RI>
2.0787e+07

>  <Rbt.Current_Directory>
/extra/banzai2/j5wagner/CELPP/2016_10_17_rdock_implementation/normal_run/tutorialVideo/tutorial_rdock_implementation/full_week_run/4-docking/5m93/LMCSS_1ogw_docking

>  <Rbt.Executable>
rbdock ($Id: //depot/dev/client3/rdock/2013.1/src/exe/rbdock.cxx#4 $)

>  <Rbt.Library>
libRbt.so (2013.1, Build901 2013/11/27)

>  <Rbt.Parameter_File>
/home/j5wagner/env_00/source/rDock/rDock_2013.1_src//data/scripts/dock.prm

>  <Rbt.Receptor>
/extra/banzai2/j5wagner/CELPP/2016_10_17_rdock_implementation/normal_run/tutorialVideo/tutorial_rdock_implementation/full_week_run/4-docking/5m93/LMCSS_1ogw_tech_prep/rDockGridGenInput.prm

>  <SCORE>
-21.4923

>  <SCORE.INTER>
-8.09694

>  <SCORE.INTER.CONST>
1

>  <SCORE.INTER.POLAR>
0

>  <SCORE.INTER.REPUL>
0

>  <SCORE.INTER.ROT>
1

>  <SCORE.INTER.VDW>
-14.4969

>  <SCORE.INTER.norm>
-0.809694

>  <SCORE.INTRA>
-2.0842

>  <SCORE.INTRA.DIHEDRAL>
-4.54598

>  <SCORE.INTRA.DIHEDRAL.0>
5.02738

>  <SCORE.INTRA.POLAR>
-7.60391e-05

>  <SCORE.INTRA.POLAR.0>
0

>  <SCORE.INTRA.REPUL>
0

>  <SCORE.INTRA.REPUL.0>
0

>  <SCORE.INTRA.VDW>
0.189046

>  <SCORE.INTRA.VDW.0>
-0.709724

>  <SCORE.INTRA.norm>
-0.20842

>  <SCORE.RESTR>
0

>  <SCORE.RESTR.CAVITY>
0

>  <SCORE.RESTR.norm>
0

>  <SCORE.SYSTEM>
-11.3112

>  <SCORE.SYSTEM.CONST>
0

>  <SCORE.SYSTEM.DIHEDRAL>
2.158

>  <SCORE.SYSTEM.POLAR>
-3.29347

>  <SCORE.SYSTEM.REPUL>
0.0315337

>  <SCORE.SYSTEM.VDW>
-1.35002

>  <SCORE.SYSTEM.norm>
-1.13112

>  <SCORE.heavy>
10

>  <SCORE.norm>
-2.14923

$$$$

  rDOCK(R)          3D
libRbt.so/2013.1/901 2013/11/27
 14 14  0  0  0  0  0  0  0  0999 V2000
   30.2260   27.3193   23.5605 C   0  0  0  0  0  0
   31.3411   28.1143   23.8746 O   0  0  0  0  0  0
   29.8415   27.5037   22.2125 O   0  0  0  0  0  0
   29.5961   26.2274   21.6597 C   0  0  0  0  0  0
   28.2685   26.2340   20.8916 C   0  0  0  0  0  0
   27.9892   24.9562   20.3869 O   0  0  0  0  0  0
   29.5973   25.1946   22.7836 C   0  0  0  0  0  0
   30.0958   23.9608   22.3348 O   0  0  0  0  0  0
   30.4916   25.8384   23.8137 C   0  0  0  0  0  0
   31.8428   25.5291   23.5713 O   0  0  0  0  0  0
   32.0102   27.9854   23.1522 H   0  0  0  0  0  0
   28.7624   24.6994   19.8193 H   0  0  0  0  0  0
   30.1562   23.3756   23.1344 H   0  0  0  0  0  0
   31.9572   24.5657   23.7815 H   0  0  0  0  0  0
  1  2  1  0  0  0
  1  3  1  0  0  0
  3  4  1  0  0  0
  4  5  1  0  0  0
  5  6  1  0  0  0
  4  7  1  0  0  0
  7  8  1  0  0  0
  7  9  1  0  0  0
  9 10  1  0  0  0
  9  1  1  0  0  0
  2 11  1  0  0  0
  6 12  1  0  0  0
  8 13  1  0  0  0
 10 14  1  0  0  0
M  END
>  <CHROM.0>
76.34597294,172.97403246,-167.71963233,63.26704662,-8.57062046,-171.26790521
61.91605755

>  <CHROM.1>
-47.78535793,-177.52080658,-57.01946930,174.14880480,178.14092849,29.96822062
26.05630800,22.49379542,0.50299298,-0.77863516,0.08041862

>  <RI>
2.0787e+07

>  <Rbt.Current_Directory>
/extra/banzai2/j5wagner/CELPP/2016_10_17_rdock_implementation/normal_run/tutorialVideo/tutorial_rdock_implementation/full_week_run/4-docking/5m93/LMCSS_1ogw_docking

>  <Rbt.Executable>
rbdock ($Id: //depot/dev/client3/rdock/2013.1/src/exe/rbdock.cxx#4 $)

>  <Rbt.Library>
libRbt.so (2013.1, Build901 2013/11/27)

>  <Rbt.Parameter_File>
/home/j5wagner/env_00/source/rDock/rDock_2013.1_src//data/scripts/dock.prm

>  <Rbt.Receptor>
/extra/banzai2/j5wagner/CELPP/2016_10_17_rdock_implementation/normal_run/tutorialVideo/tutorial_rdock_implementation/full_week_run/4-docking/5m93/LMCSS_1ogw_tech_prep/rDockGridGenInput.prm

>  <SCORE>
-21.4013

>  <SCORE.INTER>
-10.4348

>  <SCORE.INTER.CONST>
1

>  <SCORE.INTER.POLAR>
-2.41182

>  <SCORE.INTER.REPUL>
0.221154

>  <SCORE.INTER.ROT>
1

>  <SCORE.INTER.VDW>
-9.74039

>  <SCORE.INTER.norm>
-1.04348

>  <SCORE.INTRA>
-1.50806

>  <SCORE.INTRA.DIHEDRAL>
-3.71905

>  <SCORE.INTRA.DIHEDRAL.0>
5.02738

>  <SCORE.INTRA.POLAR>
0

>  <SCORE.INTRA.POLAR.0>
0

>  <SCORE.INTRA.REPUL>
0

>  <SCORE.INTRA.REPUL.0>
0

>  <SCORE.INTRA.VDW>
0.351461

>  <SCORE.INTRA.VDW.0>
-0.709724

>  <SCORE.INTRA.norm>
-0.150806

>  <SCORE.RESTR>
0.243912

>  <SCORE.RESTR.CAVITY>
0.243912

>  <SCORE.RESTR.norm>
0.0243912

>  <SCORE.SYSTEM>
-9.70232

>  <SCORE.SYSTEM.CONST>
0

>  <SCORE.SYSTEM.DIHEDRAL>
1.74625

>  <SCORE.SYSTEM.POLAR>
-2.87951

>  <SCORE.SYSTEM.REPUL>
0.0509826

>  <SCORE.SYSTEM.VDW>
-1.04001

>  <SCORE.SYSTEM.norm>
-0.970232

>  <SCORE.heavy>
10

>  <SCORE.norm>
-2.14013

$$$$

  rDOCK(R)          3D
libRbt.so/2013.1/901 2013/11/27
 14 14  0  0  0  0  0  0  0  0999 V2000
   30.1346   27.2187   23.4769 C   0  0  0  0  0  0
   31.2193   28.0075   23.8953 O   0  0  0  0  0  0
   29.8361   27.4569   22.1156 O   0  0  0  0  0  0
   29.6391   26.2032   21.4956 C   0  0  0  0  0  0
   28.3639   26.2329   20.6439 C   0  0  0  0  0  0
   28.4072   25.2320   19.6633 O   0  0  0  0  0  0
   29.5777   25.1241   22.5734 C   0  0  0  0  0  0
   30.1159   23.9137   22.1071 O   0  0  0  0  0  0
   30.3974   25.7303   23.6851 C   0  0  0  0  0  0
   31.7643   25.4407   23.5183 O   0  0  0  0  0  0
   31.9126   27.9586   23.1860 H   0  0  0  0  0  0
   28.5780   24.3765   20.1375 H   0  0  0  0  0  0
   30.2534   23.3420   22.9069 H   0  0  0  0  0  0
   31.8785   24.4759   23.7216 H   0  0  0  0  0  0
  1  2  1  0  0  0
  1  3  1  0  0  0
  3  4  1  0  0  0
  4  5  1  0  0  0
  5  6  1  0  0  0
  4  7  1  0  0  0
  7  8  1  0  0  0
  7  9  1  0  0  0
  9 10  1  0  0  0
  9  1  1  0  0  0
  2 11  1  0  0  0
  6 12  1  0  0  0
  8 13  1  0  0  0
 10 14  1  0  0  0
M  END
>  <CHROM.0>
-166.28928955,174.72039630,-48.83871449,-177.92149559,-10.78629416,71.51560171
64.64973414

>  <CHROM.1>
-44.33398785,158.10407519,54.23516833,166.11141055,176.50948703,29.98606661
26.02530308,22.30507819,0.49271111,-0.89648911,0.15540387

>  <RI>
2.0787e+07

>  <Rbt.Current_Directory>
/extra/banzai2/j5wagner/CELPP/2016_10_17_rdock_implementation/normal_run/tutorialVideo/tutorial_rdock_implementation/full_week_run/4-docking/5m93/LMCSS_1ogw_docking

>  <Rbt.Executable>
rbdock ($Id: //depot/dev/client3/rdock/2013.1/src/exe/rbdock.cxx#4 $)

>  <Rbt.Library>
libRbt.so (2013.1, Build901 2013/11/27)

>  <Rbt.Parameter_File>
/home/j5wagner/env_00/source/rDock/rDock_2013.1_src//data/scripts/dock.prm

>  <Rbt.Receptor>
/extra/banzai2/j5wagner/CELPP/2016_10_17_rdock_implementation/normal_run/tutorialVideo/tutorial_rdock_implementation/full_week_run/4-docking/5m93/LMCSS_1ogw_tech_prep/rDockGridGenInput.prm

>  <SCORE>
-21.3077

>  <SCORE.INTER>
-11.5805

>  <SCORE.INTER.CONST>
1

>  <SCORE.INTER.POLAR>
-2.62514

>  <SCORE.INTER.REPUL>
0.154068

>  <SCORE.INTER.ROT>
1

>  <SCORE.INTER.VDW>
-9.82542

>  <SCORE.INTER.norm>
-1.15805

>  <SCORE.INTRA>
-0.0742291

>  <SCORE.INTRA.DIHEDRAL>
-0.872906

>  <SCORE.INTRA.DIHEDRAL.0>
5.02738

>  <SCORE.INTRA.POLAR>
0

>  <SCORE.INTRA.POLAR.0>
0

>  <SCORE.INTRA.REPUL>
0

>  <SCORE.INTRA.REPUL.0>
0

>  <SCORE.INTRA.VDW>
0.362224

>  <SCORE.INTRA.VDW.0>
-0.709724

>  <SCORE.INTRA.norm>
-0.00742291

>  <SCORE.RESTR>
0.173382

>  <SCORE.RESTR.CAVITY>
0.173382

>  <SCORE.RESTR.norm>
0.0173382

>  <SCORE.SYSTEM>
-9.82626

>  <SCORE.SYSTEM.CONST>
0

>  <SCORE.SYSTEM.DIHEDRAL>
1.80458

>  <SCORE.SYSTEM.POLAR>
-2.84636

>  <SCORE.SYSTEM.REPUL>
0.0324394

>  <SCORE.SYSTEM.VDW>
-1.21311

>  <SCORE.SYSTEM.norm>
-0.982626

>  <SCORE.heavy>
10

>  <SCORE.norm>
-2.13077

$$$$

  rDOCK(R)          3D
libRbt.so/2013.1/901 2013/11/27
 14 14  0  0  0  0  0  0  0  0999 V2000
   30.2388   27.1815   23.6494 C   0  0  0  0  0  0
   31.1773   28.1760   23.9723 O   0  0  0  0  0  0
   29.8148   27.3082   22.3067 O   0  0  0  0  0  0
   29.8220   26.0178   21.7327 C   0  0  0  0  0  0
   28.5132   25.7744   20.9709 C   0  0  0  0  0  0
   28.5387   26.4310   19.7325 O   0  0  0  0  0  0
   30.0360   24.9874   22.8383 C   0  0  0  0  0  0
   30.7648   23.8839   22.3656 O   0  0  0  0  0  0
   30.7937   25.7784   23.8754 C   0  0  0  0  0  0
   32.1773   25.7462   23.6215 O   0  0  0  0  0  0
   31.9040   28.1285   23.2972 H   0  0  0  0  0  0
   27.6685   26.2428   19.2929 H   0  0  0  0  0  0
   30.3501   23.6236   21.5021 H   0  0  0  0  0  0
   32.6287   26.0063   24.4665 H   0  0  0  0  0  0
  1  2  1  0  0  0
  1  3  1  0  0  0
  3  4  1  0  0  0
  4  5  1  0  0  0
  5  6  1  0  0  0
  4  7  1  0  0  0
  7  8  1  0  0  0
  7  9  1  0  0  0
  9 10  1  0  0  0
  9  1  1  0  0  0
  2 11  1  0  0  0
  6 12  1  0  0  0
  8 13  1  0  0  0
 10 14  1  0  0  0
M  END
>  <CHROM.0>
-44.35216835,-58.29002791,167.35644318,-56.38754712,-12.75177415,71.26084644
65.06918691

>  <CHROM.1>
-53.71087069,77.64442166,-179.58470469,-46.78640884,86.75612628,30.21897814
26.14057203,22.47576980,0.35127671,-0.86281488,0.25958213

>  <RI>
2.0787e+07

>  <Rbt.Current_Directory>
/extra/banzai2/j5wagner/CELPP/2016_10_17_rdock_implementation/normal_run/tutorialVideo/tutorial_rdock_implementation/full_week_run/4-docking/5m93/LMCSS_1ogw_docking

>  <Rbt.Executable>
rbdock ($Id: //depot/dev/client3/rdock/2013.1/src/exe/rbdock.cxx#4 $)

>  <Rbt.Library>
libRbt.so (2013.1, Build901 2013/11/27)

>  <Rbt.Parameter_File>
/home/j5wagner/env_00/source/rDock/rDock_2013.1_src//data/scripts/dock.prm

>  <Rbt.Receptor>
/extra/banzai2/j5wagner/CELPP/2016_10_17_rdock_implementation/normal_run/tutorialVideo/tutorial_rdock_implementation/full_week_run/4-docking/5m93/LMCSS_1ogw_tech_prep/rDockGridGenInput.prm

>  <SCORE>
-21.0045

>  <SCORE.INTER>
-12.6121

>  <SCORE.INTER.CONST>
1

>  <SCORE.INTER.POLAR>
-2.48438

>  <SCORE.INTER.REPUL>
0.0811101

>  <SCORE.INTER.ROT>
1

>  <SCORE.INTER.VDW>
-10.9707

>  <SCORE.INTER.norm>
-1.26121

>  <SCORE.INTRA>
0.348537

>  <SCORE.INTRA.DIHEDRAL>
0.174497

>  <SCORE.INTRA.DIHEDRAL.0>
5.02738

>  <SCORE.INTRA.POLAR>
0

>  <SCORE.INTRA.POLAR.0>
0

>  <SCORE.INTRA.REPUL>
0

>  <SCORE.INTRA.REPUL.0>
0

>  <SCORE.INTRA.VDW>
0.261289

>  <SCORE.INTRA.VDW.0>
-0.709724

>  <SCORE.INTRA.norm>
0.0348537

>  <SCORE.RESTR>
0.184102

>  <SCORE.RESTR.CAVITY>
0.184102

>  <SCORE.RESTR.norm>
0.0184102

>  <SCORE.SYSTEM>
-8.92507

>  <SCORE.SYSTEM.CONST>
0

>  <SCORE.SYSTEM.DIHEDRAL>
1.97079

>  <SCORE.SYSTEM.POLAR>
-2.80759

>  <SCORE.SYSTEM.REPUL>
0.0357958

>  <SCORE.SYSTEM.VDW>
-0.543654

>  <SCORE.SYSTEM.norm>
-0.892507

>  <SCORE.heavy>
10

>  <SCORE.norm>
-2.10045

$$$$

  rDOCK(R)          3D
libRbt.so/2013.1/901 2013/11/27
 14 14  0  0  0  0  0  0  0  0999 V2000
   30.8332   27.1490   23.5364 C   0  0  0  0  0  0
   32.1852   27.5067   23.6712 O   0  0  0  0  0  0
   30.4325   27.2013   22.1816 O   0  0  0  0  0  0
   29.6874   26.0325   21.9109 C   0  0  0  0  0  0
   28.3969   26.3932   21.1645 C   0  0  0  0  0  0
   27.7083   25.2313   20.7885 O   0  0  0  0  0  0
   29.4009   25.3142   23.2269 C   0  0  0  0  0  0
   29.3686   23.9220   23.0455 O   0  0  0  0  0  0
   30.5528   25.7569   24.0944 C   0  0  0  0  0  0
   31.6685   24.9182   23.9164 O   0  0  0  0  0  0
   32.3293   28.3293   23.1339 H   0  0  0  0  0  0
   26.9039   25.5273   20.2871 H   0  0  0  0  0  0
   29.1475   23.5295   23.9301 H   0  0  0  0  0  0
   31.4226   24.0326   24.2913 H   0  0  0  0  0  0
  1  2  1  0  0  0
  1  3  1  0  0  0
  3  4  1  0  0  0
  4  5  1  0  0  0
  5  6  1  0  0  0
  4  7  1  0  0  0
  7  8  1  0  0  0
  7  9  1  0  0  0
  9 10  1  0  0  0
  9  1  1  0  0  0
  2 11  1  0  0  0
  6 12  1  0  0  0
  8 13  1  0  0  0
 10 14  1  0  0  0
M  END
>  <CHROM.0>
-45.11108550,173.27107156,73.82152857,-56.29855727,-177.04912788,-64.26835234
-53.62528181

>  <CHROM.1>
46.50106936,174.83866644,-178.16916835,-178.05308975,-179.62050729,30.03529028
25.91123272,22.74388658,-0.00413503,-0.67380909,-0.46431909

>  <RI>
2.0787e+07

>  <Rbt.Current_Directory>
/extra/banzai2/j5wagner/CELPP/2016_10_17_rdock_implementation/normal_run/tutorialVideo/tutorial_rdock_implementation/full_week_run/4-docking/5m93/LMCSS_1ogw_docking

>  <Rbt.Executable>
rbdock ($Id: //depot/dev/client3/rdock/2013.1/src/exe/rbdock.cxx#4 $)

>  <Rbt.Library>
libRbt.so (2013.1, Build901 2013/11/27)

>  <Rbt.Parameter_File>
/home/j5wagner/env_00/source/rDock/rDock_2013.1_src//data/scripts/dock.prm

>  <Rbt.Receptor>
/extra/banzai2/j5wagner/CELPP/2016_10_17_rdock_implementation/normal_run/tutorialVideo/tutorial_rdock_implementation/full_week_run/4-docking/5m93/LMCSS_1ogw_tech_prep/rDockGridGenInput.prm

>  <SCORE>
-20.7458

>  <SCORE.INTER>
-10.457

>  <SCORE.INTER.CONST>
1

>  <SCORE.INTER.POLAR>
-2.99704

>  <SCORE.INTER.REPUL>
0

>  <SCORE.INTER.ROT>
1

>  <SCORE.INTER.VDW>
-6.66708

>  <SCORE.INTER.norm>
-1.0457

>  <SCORE.INTRA>
-1.75393

>  <SCORE.INTRA.DIHEDRAL>
-3.67944

>  <SCORE.INTRA.DIHEDRAL.0>
5.02738

>  <SCORE.INTRA.POLAR>
0

>  <SCORE.INTRA.POLAR.0>
0

>  <SCORE.INTRA.REPUL>
0

>  <SCORE.INTRA.REPUL.0>
0

>  <SCORE.INTRA.VDW>
0.0857851

>  <SCORE.INTRA.VDW.0>
-0.709724

>  <SCORE.INTRA.norm>
-0.175393

>  <SCORE.RESTR>
0.444164

>  <SCORE.RESTR.CAVITY>
0.444164

>  <SCORE.RESTR.norm>
0.0444164

>  <SCORE.SYSTEM>
-8.97904

>  <SCORE.SYSTEM.CONST>
0

>  <SCORE.SYSTEM.DIHEDRAL>
1.53298

>  <SCORE.SYSTEM.POLAR>
-3.02979

>  <SCORE.SYSTEM.REPUL>
0.0292927

>  <SCORE.SYSTEM.VDW>
0.409285

>  <SCORE.SYSTEM.norm>
-0.897904

>  <SCORE.heavy>
10

>  <SCORE.norm>
-2.07458

$$$$

  rDOCK(R)          3D
libRbt.so/2013.1/901 2013/11/27
 14 14  0  0  0  0  0  0  0  0999 V2000
   30.2129   27.1648   23.6077 C   0  0  0  0  0  0
   31.1682   28.1494   23.9109 O   0  0  0  0  0  0
   29.8156   27.2507   22.2535 O   0  0  0  0  0  0
   29.8032   25.9398   21.7279 C   0  0  0  0  0  0
   28.5028   25.6975   20.9515 C   0  0  0  0  0  0
   28.4965   26.4418   19.7634 O   0  0  0  0  0  0
   29.9739   24.9469   22.8745 C   0  0  0  0  0  0
   30.6854   23.8105   22.4565 O   0  0  0  0  0  0
   30.7312   25.7590   23.8955 C   0  0  0  0  0  0
   32.1180   25.6864   23.6686 O   0  0  0  0  0  0
   31.8914   28.0795   23.2339 H   0  0  0  0  0  0
   29.2661   26.1221   19.2236 H   0  0  0  0  0  0
   30.3409   23.5808   21.5543 H   0  0  0  0  0  0
   32.3940   24.7572   23.8827 H   0  0  0  0  0  0
  1  2  1  0  0  0
  1  3  1  0  0  0
  3  4  1  0  0  0
  4  5  1  0  0  0
  5  6  1  0  0  0
  4  7  1  0  0  0
  7  8  1  0  0  0
  7  9  1  0  0  0
  9 10  1  0  0  0
  9  1  1  0  0  0
  2 11  1  0  0  0
  6 12  1  0  0  0
  8 13  1  0  0  0
 10 14  1  0  0  0
M  END
>  <CHROM.0>
74.34245375,173.58331786,51.17767095,-176.55342963,-173.83534777,71.86266548
64.17429608

>  <CHROM.1>
-51.92789709,70.29836355,61.31944727,-41.32253867,179.30982807,30.19217803
26.08817737,22.47612110,0.29133293,-0.88421177,0.20420204

>  <RI>
2.0787e+07

>  <Rbt.Current_Directory>
/extra/banzai2/j5wagner/CELPP/2016_10_17_rdock_implementation/normal_run/tutorialVideo/tutorial_rdock_implementation/full_week_run/4-docking/5m93/LMCSS_1ogw_docking

>  <Rbt.Executable>
rbdock ($Id: //depot/dev/client3/rdock/2013.1/src/exe/rbdock.cxx#4 $)

>  <Rbt.Library>
libRbt.so (2013.1, Build901 2013/11/27)

>  <Rbt.Parameter_File>
/home/j5wagner/env_00/source/rDock/rDock_2013.1_src//data/scripts/dock.prm

>  <Rbt.Receptor>
/extra/banzai2/j5wagner/CELPP/2016_10_17_rdock_implementation/normal_run/tutorialVideo/tutorial_rdock_implementation/full_week_run/4-docking/5m93/LMCSS_1ogw_tech_prep/rDockGridGenInput.prm

>  <SCORE>
-20.3096

>  <SCORE.INTER>
-10.2046

>  <SCORE.INTER.CONST>
1

>  <SCORE.INTER.POLAR>
-2.46683

>  <SCORE.INTER.REPUL>
0.520479

>  <SCORE.INTER.ROT>
1

>  <SCORE.INTER.VDW>
-10.8198

>  <SCORE.INTER.norm>
-1.02046

>  <SCORE.INTRA>
-0.637805

>  <SCORE.INTRA.DIHEDRAL>
-2.43522

>  <SCORE.INTRA.DIHEDRAL.0>
5.02738

>  <SCORE.INTRA.POLAR>
0

>  <SCORE.INTRA.POLAR.0>
0

>  <SCORE.INTRA.REPUL>
0

>  <SCORE.INTRA.REPUL.0>
0

>  <SCORE.INTRA.VDW>
0.579808

>  <SCORE.INTRA.VDW.0>
-0.709724

>  <SCORE.INTRA.norm>
-0.0637805

>  <SCORE.RESTR>
0.238769

>  <SCORE.RESTR.CAVITY>
0.238769

>  <SCORE.RESTR.norm>
0.0238769

>  <SCORE.SYSTEM>
-9.70596

>  <SCORE.SYSTEM.CONST>
0

>  <SCORE.SYSTEM.DIHEDRAL>
1.72321

>  <SCORE.SYSTEM.POLAR>
-2.77738

>  <SCORE.SYSTEM.VDW>
-1.12447

>  <SCORE.SYSTEM.norm>
-0.970596

>  <SCORE.heavy>
10

>  <SCORE.norm>
-2.03096

$$$$

  rDOCK(R)          3D
libRbt.so/2013.1/901 2013/11/27
 14 14  0  0  0  0  0  0  0  0999 V2000
   25.6734   29.3828   16.0597 C   0  0  0  0  0  0
   26.3457   30.2652   16.9220 O   0  0  0  0  0  0
   25.0972   30.0826   14.9748 O   0  0  0  0  0  0
   25.3846   29.3573   13.7974 C   0  0  0  0  0  0
   24.1154   29.2080   12.9493 C   0  0  0  0  0  0
   24.4304   28.6925   11.6842 O   0  0  0  0  0  0
   25.9726   28.0027   14.1838 C   0  0  0  0  0  0
   26.9137   27.5718   13.2346 O   0  0  0  0  0  0
   26.5971   28.2921   15.5260 C   0  0  0  0  0  0
   27.9075   28.7823   15.3764 O   0  0  0  0  0  0
   27.1553   30.5866   16.4453 H   0  0  0  0  0  0
   25.0404   29.3473   11.2541 H   0  0  0  0  0  0
   27.6166   28.2719   13.1995 H   0  0  0  0  0  0
   28.4575   28.0282   15.0385 H   0  0  0  0  0  0
  1  2  1  0  0  0
  1  3  1  0  0  0
  3  4  1  0  0  0
  4  5  1  0  0  0
  5  6  1  0  0  0
  4  7  1  0  0  0
  7  8  1  0  0  0
  7  9  1  0  0  0
  9 10  1  0  0  0
  9  1  1  0  0  0
  2 11  1  0  0  0
  6 12  1  0  0  0
  8 13  1  0  0  0
 10 14  1  0  0  0
M  END
>  <CHROM.0>
-166.28671615,-56.46863537,-167.86758376,-57.33190165,-12.09191235,72.74917741
63.68121026

>  <CHROM.1>
-70.18505044,170.06917444,-61.17332335,58.82040331,179.37593881,25.89432811
28.97935110,14.44432879,1.02960463,-0.55197844,1.06314843

>  <RI>
2.0787e+07

>  <Rbt.Current_Directory>
/extra/banzai2/j5wagner/CELPP/2016_10_17_rdock_implementation/normal_run/tutorialVideo/tutorial_rdock_implementation/full_week_run/4-docking/5m93/LMCSS_1ogw_docking

>  <Rbt.Executable>
rbdock ($Id: //depot/dev/client3/rdock/2013.1/src/exe/rbdock.cxx#4 $)

>  <Rbt.Library>
libRbt.so (2013.1, Build901 2013/11/27)

>  <Rbt.Parameter_File>
/home/j5wagner/env_00/source/rDock/rDock_2013.1_src//data/scripts/dock.prm

>  <Rbt.Receptor>
/extra/banzai2/j5wagner/CELPP/2016_10_17_rdock_implementation/normal_run/tutorialVideo/tutorial_rdock_implementation/full_week_run/4-docking/5m93/LMCSS_1ogw_tech_prep/rDockGridGenInput.prm

>  <SCORE>
-20.0731

>  <SCORE.INTER>
-8.41225

>  <SCORE.INTER.CONST>
1

>  <SCORE.INTER.POLAR>
-0.863046

>  <SCORE.INTER.REPUL>
0

>  <SCORE.INTER.ROT>
1

>  <SCORE.INTER.VDW>
-11.8779

>  <SCORE.INTER.norm>
-0.841225

>  <SCORE.INTRA>
-1.44595

>  <SCORE.INTRA.DIHEDRAL>
-3.80561

>  <SCORE.INTRA.DIHEDRAL.0>
5.02738

>  <SCORE.INTRA.POLAR>
-0.0636313

>  <SCORE.INTRA.POLAR.0>
0

>  <SCORE.INTRA.REPUL>
0

>  <SCORE.INTRA.REPUL.0>
0

>  <SCORE.INTRA.VDW>
0.673207

>  <SCORE.INTRA.VDW.0>
-0.709724

>  <SCORE.INTRA.norm>
-0.144595

>  <SCORE.RESTR>
0

>  <SCORE.RESTR.CAVITY>
0

>  <SCORE.RESTR.norm>
0

>  <SCORE.SYSTEM>
-10.215

>  <SCORE.SYSTEM.CONST>
0

>  <SCORE.SYSTEM.DIHEDRAL>
1.92976

>  <SCORE.SYSTEM.POLAR>
-3.19085

>  <SCORE.SYSTEM.REPUL>
0.0346762

>  <SCORE.SYSTEM.VDW>
-0.504308

>  <SCORE.SYSTEM.norm>
-1.0215

>  <SCORE.heavy>
10

>  <SCORE.norm>
-2.00731

$$$$

  rDOCK(R)          3D
libRbt.so/2013.1/901 2013/11/27
 14 14  0  0  0  0  0  0  0  0999 V2000
   26.2501   24.4616   18.3698 C   0  0  0  0  0  0
   27.2092   23.9793   19.2762 O   0  0  0  0  0  0
   24.9716   24.5123   18.9712 O   0  0  0  0  0  0
   24.3900   25.7546   18.6347 C   0  0  0  0  0  0
   22.9472   25.5471   18.1574 C   0  0  0  0  0  0
   22.1193   25.2067   19.2364 O   0  0  0  0  0  0
   25.2497   26.4291   17.5690 C   0  0  0  0  0  0
   25.2269   27.8260   17.7119 O   0  0  0  0  0  0
   26.6140   25.8436   17.8356 C   0  0  0  0  0  0
   27.2990   26.5880   18.8137 O   0  0  0  0  0  0
   27.2439   24.6155   20.0379 H   0  0  0  0  0  0
   21.1992   25.1215   18.8728 H   0  0  0  0  0  0
   25.5761   28.0202   18.6207 H   0  0  0  0  0  0
   26.6959   26.6496   19.5998 H   0  0  0  0  0  0
  1  2  1  0  0  0
  1  3  1  0  0  0
  3  4  1  0  0  0
  4  5  1  0  0  0
  5  6  1  0  0  0
  4  7  1  0  0  0
  7  8  1  0  0  0
  7  9  1  0  0  0
  9 10  1  0  0  0
  9  1  1  0  0  0
  2 11  1  0  0  0
  6 12  1  0  0  0
  8 13  1  0  0  0
 10 14  1  0  0  0
M  END
>  <CHROM.0>
-47.87242117,172.61309720,71.88937655,62.90260621,-7.89031296,71.50665425
-55.61142141

>  <CHROM.1>
-61.64108390,71.92061584,177.81756925,59.38502679,-58.60324101,25.22472692
25.62820253,18.51193861,0.00391483,-0.01360286,2.75808609

>  <RI>
2.0787e+07

>  <Rbt.Current_Directory>
/extra/banzai2/j5wagner/CELPP/2016_10_17_rdock_implementation/normal_run/tutorialVideo/tutorial_rdock_implementation/full_week_run/4-docking/5m93/LMCSS_1ogw_docking

>  <Rbt.Executable>
rbdock ($Id: //depot/dev/client3/rdock/2013.1/src/exe/rbdock.cxx#4 $)

>  <Rbt.Library>
libRbt.so (2013.1, Build901 2013/11/27)

>  <Rbt.Parameter_File>
/home/j5wagner/env_00/source/rDock/rDock_2013.1_src//data/scripts/dock.prm

>  <Rbt.Receptor>
/extra/banzai2/j5wagner/CELPP/2016_10_17_rdock_implementation/normal_run/tutorialVideo/tutorial_rdock_implementation/full_week_run/4-docking/5m93/LMCSS_1ogw_tech_prep/rDockGridGenInput.prm

>  <SCORE>
-20.008

>  <SCORE.INTER>
-8.46385

>  <SCORE.INTER.CONST>
1

>  <SCORE.INTER.POLAR>
-0.33765

>  <SCORE.INTER.REPUL>
0

>  <SCORE.INTER.ROT>
1

>  <SCORE.INTER.VDW>
-13.7158

>  <SCORE.INTER.norm>
-0.846385

>  <SCORE.INTRA>
-1.18511

>  <SCORE.INTRA.DIHEDRAL>
-4.12947

>  <SCORE.INTRA.DIHEDRAL.0>
5.02738

>  <SCORE.INTRA.POLAR>
0

>  <SCORE.INTRA.POLAR.0>
0

>  <SCORE.INTRA.REPUL>
0

>  <SCORE.INTRA.REPUL.0>
0

>  <SCORE.INTRA.VDW>
0.879623

>  <SCORE.INTRA.VDW.0>
-0.709724

>  <SCORE.INTRA.norm>
-0.118511

>  <SCORE.RESTR>
0

>  <SCORE.RESTR.CAVITY>
0

>  <SCORE.RESTR.norm>
0

>  <SCORE.SYSTEM>
-10.359

>  <SCORE.SYSTEM.CONST>
0

>  <SCORE.SYSTEM.DIHEDRAL>
1.79945

>  <SCORE.SYSTEM.POLAR>
-3.29147

>  <SCORE.SYSTEM.REPUL>
0.027383

>  <SCORE.SYSTEM.VDW>
-0.204641

>  <SCORE.SYSTEM.norm>
-1.0359

>  <SCORE.heavy>
10

>  <SCORE.norm>
-2.0008

$$$$

  rDOCK(R)          3D
libRbt.so/2013.1/901 2013/11/27
 14 14  0  0  0  0  0  0  0  0999 V2000
   24.5885   25.5962   18.8994 C   0  0  0  0  0  0
   24.0194   25.4476   20.1754 O   0  0  0  0  0  0
   24.4830   26.9344   18.4553 O   0  0  0  0  0  0
   25.7324   27.3033   17.9098 C   0  0  0  0  0  0
   25.5309   27.9940   16.5553 C   0  0  0  0  0  0
   26.7467   28.5073   16.0822 O   0  0  0  0  0  0
   26.6048   26.0567   17.7878 C   0  0  0  0  0  0
   27.9600   26.3678   17.9848 O   0  0  0  0  0  0
   26.0526   25.1678   18.8742 C   0  0  0  0  0  0
   26.6694   25.4396   20.1093 O   0  0  0  0  0  0
   23.0612   25.6984   20.1039 H   0  0  0  0  0  0
   27.0179   29.2237   16.7140 H   0  0  0  0  0  0
   28.4623   25.5201   17.8640 H   0  0  0  0  0  0
   26.5609   26.4124   20.2746 H   0  0  0  0  0  0
  1  2  1  0  0  0
  1  3  1  0  0  0
  3  4  1  0  0  0
  4  5  1  0  0  0
  5  6  1  0  0  0
  4  7  1  0  0  0
  7  8  1  0  0  0
  7  9  1  0  0  0
  9 10  1  0  0  0
  9  1  1  0  0  0
  2 11  1  0  0  0
  6 12  1  0  0  0
  8 13  1  0  0  0
 10 14  1  0  0  0
M  END
>  <CHROM.0>
72.62219859,171.92181096,71.69094081,63.52661158,174.35099111,69.83934099
-54.18428056

>  <CHROM.1>
60.46943587,172.86300569,-65.47275657,-178.33595652,-57.32059703,25.86203262
26.50360500,18.31160019,1.95454739,-0.16926312,2.30765305

>  <RI>
2.0787e+07

>  <Rbt.Current_Directory>
/extra/banzai2/j5wagner/CELPP/2016_10_17_rdock_implementation/normal_run/tutorialVideo/tutorial_rdock_implementation/full_week_run/4-docking/5m93/LMCSS_1ogw_docking

>  <Rbt.Executable>
rbdock ($Id: //depot/dev/client3/rdock/2013.1/src/exe/rbdock.cxx#4 $)

>  <Rbt.Library>
libRbt.so (2013.1, Build901 2013/11/27)

>  <Rbt.Parameter_File>
/home/j5wagner/env_00/source/rDock/rDock_2013.1_src//data/scripts/dock.prm

>  <Rbt.Receptor>
/extra/banzai2/j5wagner/CELPP/2016_10_17_rdock_implementation/normal_run/tutorialVideo/tutorial_rdock_implementation/full_week_run/4-docking/5m93/LMCSS_1ogw_tech_prep/rDockGridGenInput.prm

>  <SCORE>
-19.7362

>  <SCORE.INTER>
-7.67067

>  <SCORE.INTER.CONST>
1

>  <SCORE.INTER.POLAR>
-0.139

>  <SCORE.INTER.REPUL>
0

>  <SCORE.INTER.ROT>
1

>  <SCORE.INTER.VDW>
-13.5981

>  <SCORE.INTER.norm>
-0.767067

>  <SCORE.INTRA>
-1.60731

>  <SCORE.INTRA.DIHEDRAL>
-4.29121

>  <SCORE.INTRA.DIHEDRAL.0>
5.02738

>  <SCORE.INTRA.POLAR>
0

>  <SCORE.INTRA.POLAR.0>
0

>  <SCORE.INTRA.REPUL>
0

>  <SCORE.INTRA.REPUL.0>
0

>  <SCORE.INTRA.VDW>
0.538292

>  <SCORE.INTRA.VDW.0>
-0.709724

>  <SCORE.INTRA.norm>
-0.160731

>  <SCORE.RESTR>
0

>  <SCORE.RESTR.CAVITY>
0

>  <SCORE.RESTR.norm>
0

>  <SCORE.SYSTEM>
-10.4582

>  <SCORE.SYSTEM.CONST>
0

>  <SCORE.SYSTEM.DIHEDRAL>
1.73851

>  <SCORE.SYSTEM.POLAR>
-3.26872

>  <SCORE.SYSTEM.VDW>
-0.213844

>  <SCORE.SYSTEM.norm>
-1.04582

>  <SCORE.heavy>
10

>  <SCORE.norm>
-1.97362

$$$$

  rDOCK(R)          3D
libRbt.so/2013.1/901 2013/11/27
 14 14  0  0  0  0  0  0  0  0999 V2000
   26.2164   28.2530   15.4575 C   0  0  0  0  0  0
   25.8034   28.0258   16.7811 O   0  0  0  0  0  0
   25.1026   28.3284   14.5899 O   0  0  0  0  0  0
   25.2995   29.4368   13.7371 C   0  0  0  0  0  0
   25.0158   29.0382   12.2834 C   0  0  0  0  0  0
   24.5101   30.1315   11.5662 O   0  0  0  0  0  0
   26.7254   29.9508   13.9174 C   0  0  0  0  0  0
   26.7852   31.3435   13.7475 O   0  0  0  0  0  0
   27.0458   29.5271   15.3292 C   0  0  0  0  0  0
   26.6141   30.4944   16.2555 O   0  0  0  0  0  0
   25.3042   27.1675   16.7928 H   0  0  0  0  0  0
   24.5464   29.8826   10.6056 H   0  0  0  0  0  0
   26.4992   31.5242   12.8142 H   0  0  0  0  0  0
   27.2421   31.2597   16.1826 H   0  0  0  0  0  0
  1  2  1  0  0  0
  1  3  1  0  0  0
  3  4  1  0  0  0
  4  5  1  0  0  0
  5  6  1  0  0  0
  4  7  1  0  0  0
  7  8  1  0  0  0
  7  9  1  0  0  0
  9 10  1  0  0  0
  9  1  1  0  0  0
  2 11  1  0  0  0
  6 12  1  0  0  0
  8 13  1  0  0  0
 10 14  1  0  0  0
M  END
>  <CHROM.0>
-47.44183709,-57.92134000,-46.94446224,-57.32496133,-6.13662042,-172.38942181
-53.95005035

>  <CHROM.1>
59.79956347,148.55095335,167.12216623,-61.99619557,174.74703001,25.89069764
29.48475641,14.36728276,1.10257522,0.91237930,2.20465227

>  <RI>
2.0787e+07

>  <Rbt.Current_Directory>
/extra/banzai2/j5wagner/CELPP/2016_10_17_rdock_implementation/normal_run/tutorialVideo/tutorial_rdock_implementation/full_week_run/4-docking/5m93/LMCSS_1ogw_docking

>  <Rbt.Executable>
rbdock ($Id: //depot/dev/client3/rdock/2013.1/src/exe/rbdock.cxx#4 $)

>  <Rbt.Library>
libRbt.so (2013.1, Build901 2013/11/27)

>  <Rbt.Parameter_File>
/home/j5wagner/env_00/source/rDock/rDock_2013.1_src//data/scripts/dock.prm

>  <Rbt.Receptor>
/extra/banzai2/j5wagner/CELPP/2016_10_17_rdock_implementation/normal_run/tutorialVideo/tutorial_rdock_implementation/full_week_run/4-docking/5m93/LMCSS_1ogw_tech_prep/rDockGridGenInput.prm

>  <SCORE>
-19.6827

>  <SCORE.INTER>
-11.4207

>  <SCORE.INTER.CONST>
1

>  <SCORE.INTER.POLAR>
-1.52956

>  <SCORE.INTER.REPUL>
0

>  <SCORE.INTER.ROT>
1

>  <SCORE.INTER.VDW>
-12.6202

>  <SCORE.INTER.norm>
-1.14207

>  <SCORE.INTRA>
-0.404058

>  <SCORE.INTRA.DIHEDRAL>
-0.892201

>  <SCORE.INTRA.DIHEDRAL.0>
5.02738

>  <SCORE.INTRA.POLAR>
0

>  <SCORE.INTRA.POLAR.0>
0

>  <SCORE.INTRA.REPUL>
0

>  <SCORE.INTRA.REPUL.0>
0

>  <SCORE.INTRA.VDW>
0.0420423

>  <SCORE.INTRA.VDW.0>
-0.709724

>  <SCORE.INTRA.norm>
-0.0404058

>  <SCORE.RESTR>
0

>  <SCORE.RESTR.CAVITY>
0

>  <SCORE.RESTR.norm>
0

>  <SCORE.SYSTEM>
-7.85793

>  <SCORE.SYSTEM.CONST>
0

>  <SCORE.SYSTEM.DIHEDRAL>
1.34053

>  <SCORE.SYSTEM.POLAR>
-2.82956

>  <SCORE.SYSTEM.REPUL>
0.0515137

>  <SCORE.SYSTEM.VDW>
0.834733

>  <SCORE.SYSTEM.norm>
-0.785793

>  <SCORE.heavy>
10

>  <SCORE.norm>
-1.96827

$$$$

  rDOCK(R)          3D
libRbt.so/2013.1/901 2013/11/27
 14 14  0  0  0  0  0  0  0  0999 V2000
   26.6612   27.0334   15.3241 C   0  0  0  0  0  0
   26.2707   25.8209   15.9168 O   0  0  0  0  0  0
   25.6429   27.5295   14.4779 O   0  0  0  0  0  0
   25.5023   28.9097   14.7424 C   0  0  0  0  0  0
   25.4599   29.6953   13.4258 C   0  0  0  0  0  0
   24.3859   29.2651   12.6340 O   0  0  0  0  0  0
   26.6546   29.3606   15.6362 C   0  0  0  0  0  0
   26.2471   30.3843   16.5071 O   0  0  0  0  0  0
   27.0138   28.0905   16.3663 C   0  0  0  0  0  0
   26.2234   27.9318   17.5196 O   0  0  0  0  0  0
   27.0122   25.5278   16.5088 H   0  0  0  0  0  0
   23.5574   29.4810   13.1370 H   0  0  0  0  0  0
   25.6509   29.9603   17.1780 H   0  0  0  0  0  0
   26.4502   27.0439   17.9011 H   0  0  0  0  0  0
  1  2  1  0  0  0
  1  3  1  0  0  0
  3  4  1  0  0  0
  4  5  1  0  0  0
  5  6  1  0  0  0
  4  7  1  0  0  0
  7  8  1  0  0  0
  7  9  1  0  0  0
  9 10  1  0  0  0
  9  1  1  0  0  0
  2 11  1  0  0  0
  6 12  1  0  0  0
  8 13  1  0  0  0
 10 14  1  0  0  0
M  END
>  <CHROM.0>
-164.50462299,174.26998877,71.68100451,-56.98302972,-6.85903641,72.72565136
65.81914548

>  <CHROM.1>
-179.05076208,59.35133222,63.51894036,71.42966897,63.10073807,25.96839014
28.37867026,15.28311243,0.36856172,1.16070145,-2.97184994

>  <RI>
2.0787e+07

>  <Rbt.Current_Directory>
/extra/banzai2/j5wagner/CELPP/2016_10_17_rdock_implementation/normal_run/tutorialVideo/tutorial_rdock_implementation/full_week_run/4-docking/5m93/LMCSS_1ogw_docking

>  <Rbt.Executable>
rbdock ($Id: //depot/dev/client3/rdock/2013.1/src/exe/rbdock.cxx#4 $)

>  <Rbt.Library>
libRbt.so (2013.1, Build901 2013/11/27)

>  <Rbt.Parameter_File>
/home/j5wagner/env_00/source/rDock/rDock_2013.1_src//data/scripts/dock.prm

>  <Rbt.Receptor>
/extra/banzai2/j5wagner/CELPP/2016_10_17_rdock_implementation/normal_run/tutorialVideo/tutorial_rdock_implementation/full_week_run/4-docking/5m93/LMCSS_1ogw_tech_prep/rDockGridGenInput.prm

>  <SCORE>
-19.5556

>  <SCORE.INTER>
-6.29441

>  <SCORE.INTER.CONST>
1

>  <SCORE.INTER.POLAR>
-0.598013

>  <SCORE.INTER.REPUL>
0

>  <SCORE.INTER.ROT>
1

>  <SCORE.INTER.VDW>
-10.6612

>  <SCORE.INTER.norm>
-0.629441

>  <SCORE.INTRA>
-1.93553

>  <SCORE.INTRA.DIHEDRAL>
-3.95261

>  <SCORE.INTRA.DIHEDRAL.0>
5.02738

>  <SCORE.INTRA.POLAR>
-0.213268

>  <SCORE.INTRA.POLAR.0>
0

>  <SCORE.INTRA.REPUL>
0

>  <SCORE.INTRA.REPUL.0>
0

>  <SCORE.INTRA.VDW>
0.765883

>  <SCORE.INTRA.VDW.0>
-0.709724

>  <SCORE.INTRA.norm>
-0.193553

>  <SCORE.RESTR>
0

>  <SCORE.RESTR.CAVITY>
0

>  <SCORE.RESTR.norm>
0

>  <SCORE.SYSTEM>
-11.3257

>  <SCORE.SYSTEM.CONST>
0

>  <SCORE.SYSTEM.DIHEDRAL>
2.07992

>  <SCORE.SYSTEM.POLAR>
-3.32557

>  <SCORE.SYSTEM.REPUL>
0.0255533

>  <SCORE.SYSTEM.VDW>
-1.18647

>  <SCORE.SYSTEM.norm>
-1.13257

>  <SCORE.heavy>
10

>  <SCORE.norm>
-1.95556

$$$$

  rDOCK(R)          3D
libRbt.so/2013.1/901 2013/11/27
 14 14  0  0  0  0  0  0  0  0999 V2000
   26.8390   29.4769   16.4179 C   0  0  0  0  0  0
   26.8328   30.7380   17.0372 O   0  0  0  0  0  0
   26.3101   28.4905   17.2817 O   0  0  0  0  0  0
   25.4172   27.6969   16.5283 C   0  0  0  0  0  0
   25.6891   26.2099   16.7877 C   0  0  0  0  0  0
   25.4706   25.9009   18.1376 O   0  0  0  0  0  0
   25.5668   28.0528   15.0515 C   0  0  0  0  0  0
   24.3418   27.9296   14.3760 O   0  0  0  0  0  0
   26.0529   29.4795   15.1102 C   0  0  0  0  0  0
   24.9719   30.3772   15.1841 O   0  0  0  0  0  0
   27.3429   31.3580   16.4529 H   0  0  0  0  0  0
   25.6384   24.9273   18.2372 H   0  0  0  0  0  0
   24.5170   28.1777   13.4309 H   0  0  0  0  0  0
   25.3597   31.2909   15.1929 H   0  0  0  0  0  0
  1  2  1  0  0  0
  1  3  1  0  0  0
  3  4  1  0  0  0
  4  5  1  0  0  0
  5  6  1  0  0  0
  4  7  1  0  0  0
  7  8  1  0  0  0
  7  9  1  0  0  0
  9 10  1  0  0  0
  9  1  1  0  0  0
  2 11  1  0  0  0
  6 12  1  0  0  0
  8 13  1  0  0  0
 10 14  1  0  0  0
M  END
>  <CHROM.0>
-47.94832810,173.11903544,-167.70638332,62.92855834,-172.15284302,-62.31710830
62.52085743

>  <CHROM.1>
171.03215817,62.18857937,178.55518138,179.84003135,69.87481851,25.73161448
28.45882272,16.20654972,-1.38648050,0.98323950,2.59901559

>  <RI>
2.0787e+07

>  <Rbt.Current_Directory>
/extra/banzai2/j5wagner/CELPP/2016_10_17_rdock_implementation/normal_run/tutorialVideo/tutorial_rdock_implementation/full_week_run/4-docking/5m93/LMCSS_1ogw_docking

>  <Rbt.Executable>
rbdock ($Id: //depot/dev/client3/rdock/2013.1/src/exe/rbdock.cxx#4 $)

>  <Rbt.Library>
libRbt.so (2013.1, Build901 2013/11/27)

>  <Rbt.Parameter_File>
/home/j5wagner/env_00/source/rDock/rDock_2013.1_src//data/scripts/dock.prm

>  <Rbt.Receptor>
/extra/banzai2/j5wagner/CELPP/2016_10_17_rdock_implementation/normal_run/tutorialVideo/tutorial_rdock_implementation/full_week_run/4-docking/5m93/LMCSS_1ogw_tech_prep/rDockGridGenInput.prm

>  <SCORE>
-19.0323

>  <SCORE.INTER>
-7.82682

>  <SCORE.INTER.CONST>
1

>  <SCORE.INTER.POLAR>
-1.12015

>  <SCORE.INTER.REPUL>
0

>  <SCORE.INTER.ROT>
1

>  <SCORE.INTER.VDW>
-10.4183

>  <SCORE.INTER.norm>
-0.782682

>  <SCORE.INTRA>
-1.72526

>  <SCORE.INTRA.DIHEDRAL>
-3.81395

>  <SCORE.INTRA.DIHEDRAL.0>
5.02738

>  <SCORE.INTRA.POLAR>
0

>  <SCORE.INTRA.POLAR.0>
0

>  <SCORE.INTRA.REPUL>
0

>  <SCORE.INTRA.REPUL.0>
0

>  <SCORE.INTRA.VDW>
0.18172

>  <SCORE.INTRA.VDW.0>
-0.709724

>  <SCORE.INTRA.norm>
-0.172526

>  <SCORE.RESTR>
0

>  <SCORE.RESTR.CAVITY>
0

>  <SCORE.RESTR.norm>
0

>  <SCORE.SYSTEM>
-9.48023

>  <SCORE.SYSTEM.CONST>
0

>  <SCORE.SYSTEM.DIHEDRAL>
1.11308

>  <SCORE.SYSTEM.POLAR>
-2.87807

>  <SCORE.SYSTEM.REPUL>
0.0274875

>  <SCORE.SYSTEM.VDW>
-0.388771

>  <SCORE.SYSTEM.norm>
-0.948023

>  <SCORE.heavy>
10

>  <SCORE.norm>
-1.90323

$$$$

  rDOCK(R)          3D
libRbt.so/2013.1/901 2013/11/27
 14 14  0  0  0  0  0  0  0  0999 V2000
   26.6175   24.8608   19.5253 C   0  0  0  0  0  0
   27.6333   25.1497   20.4519 O   0  0  0  0  0  0
   25.4342   25.5675   19.8406 O   0  0  0  0  0  0
   24.9329   26.1185   18.6407 C   0  0  0  0  0  0
   23.4289   25.8417   18.5236 C   0  0  0  0  0  0
   22.7307   26.4895   19.5523 O   0  0  0  0  0  0
   25.7117   25.5328   17.4658 C   0  0  0  0  0  0
   25.8366   26.4687   16.4262 O   0  0  0  0  0  0
   27.0384   25.1895   18.0961 C   0  0  0  0  0  0
   27.9062   26.2970   18.0778 O   0  0  0  0  0  0
   28.4606   24.7015   20.1345 H   0  0  0  0  0  0
   21.7718   26.4805   19.2947 H   0  0  0  0  0  0
   24.9134   26.7359   16.1777 H   0  0  0  0  0  0
   28.1355   26.4642   17.1266 H   0  0  0  0  0  0
  1  2  1  0  0  0
  1  3  1  0  0  0
  3  4  1  0  0  0
  4  5  1  0  0  0
  5  6  1  0  0  0
  4  7  1  0  0  0
  7  8  1  0  0  0
  7  9  1  0  0  0
  9 10  1  0  0  0
  9  1  1  0  0  0
  2 11  1  0  0  0
  6 12  1  0  0  0
  8 13  1  0  0  0
 10 14  1  0  0  0
M  END
>  <CHROM.0>
72.82208103,-55.66901899,-48.58227099,-178.94554695,-175.10453171,72.03102725
-54.28238404

>  <CHROM.1>
-174.52830523,64.00333401,165.30448929,-57.09255496,-179.50046690,25.73209735
25.78551630,18.66714328,0.01965711,-0.16169771,1.82914513

>  <RI>
2.0787e+07

>  <Rbt.Current_Directory>
/extra/banzai2/j5wagner/CELPP/2016_10_17_rdock_implementation/normal_run/tutorialVideo/tutorial_rdock_implementation/full_week_run/4-docking/5m93/LMCSS_1ogw_docking

>  <Rbt.Executable>
rbdock ($Id: //depot/dev/client3/rdock/2013.1/src/exe/rbdock.cxx#4 $)

>  <Rbt.Library>
libRbt.so (2013.1, Build901 2013/11/27)

>  <Rbt.Parameter_File>
/home/j5wagner/env_00/source/rDock/rDock_2013.1_src//data/scripts/dock.prm

>  <Rbt.Receptor>
/extra/banzai2/j5wagner/CELPP/2016_10_17_rdock_implementation/normal_run/tutorialVideo/tutorial_rdock_implementation/full_week_run/4-docking/5m93/LMCSS_1ogw_tech_prep/rDockGridGenInput.prm

>  <SCORE>
-18.9337

>  <SCORE.INTER>
-9.34584

>  <SCORE.INTER.CONST>
1

>  <SCORE.INTER.POLAR>
-1.19052

>  <SCORE.INTER.REPUL>
0.0553288

>  <SCORE.INTER.ROT>
1

>  <SCORE.INTER.VDW>
-11.9747

>  <SCORE.INTER.norm>
-0.934584

>  <SCORE.INTRA>
-1.31286

>  <SCORE.INTRA.DIHEDRAL>
-3.41223

>  <SCORE.INTRA.DIHEDRAL.0>
5.02738

>  <SCORE.INTRA.POLAR>
0

>  <SCORE.INTRA.POLAR.0>
0

>  <SCORE.INTRA.REPUL>
0

>  <SCORE.INTRA.REPUL.0>
0

>  <SCORE.INTRA.VDW>
0.393256

>  <SCORE.INTRA.VDW.0>
-0.709724

>  <SCORE.INTRA.norm>
-0.131286

>  <SCORE.RESTR>
0

>  <SCORE.RESTR.CAVITY>
0

>  <SCORE.RESTR.norm>
0

>  <SCORE.SYSTEM>
-8.27496

>  <SCORE.SYSTEM.CONST>
0

>  <SCORE.SYSTEM.DIHEDRAL>
1.69039

>  <SCORE.SYSTEM.POLAR>
-2.85591

>  <SCORE.SYSTEM.VDW>
0.58995

>  <SCORE.SYSTEM.norm>
-0.827496

>  <SCORE.heavy>
10

>  <SCORE.norm>
-1.89337

$$$$

  rDOCK(R)          3D
libRbt.so/2013.1/901 2013/11/27
 14 14  0  0  0  0  0  0  0  0999 V2000
   26.3968   24.3743   18.4477 C   0  0  0  0  0  0
   27.4165   23.9467   19.3145 O   0  0  0  0  0  0
   25.2183   24.6752   19.1684 O   0  0  0  0  0  0
   24.7172   25.9003   18.6758 C   0  0  0  0  0  0
   23.2113   25.7828   18.4092 C   0  0  0  0  0  0
   22.5010   25.7586   19.6176 O   0  0  0  0  0  0
   25.4898   26.2779   17.4147 C   0  0  0  0  0  0
   25.6174   27.6717   17.2993 O   0  0  0  0  0  0
   26.8161   25.5927   17.6306 C   0  0  0  0  0  0
   27.6900   26.4092   18.3719 O   0  0  0  0  0  0
   27.5819   24.6806   19.9627 H   0  0  0  0  0  0
   21.6310   26.2049   19.4450 H   0  0  0  0  0  0
   26.2111   27.9608   18.0405 H   0  0  0  0  0  0
   28.5144   25.8783   18.5265 H   0  0  0  0  0  0
  1  2  1  0  0  0
  1  3  1  0  0  0
  3  4  1  0  0  0
  4  5  1  0  0  0
  5  6  1  0  0  0
  4  7  1  0  0  0
  7  8  1  0  0  0
  7  9  1  0  0  0
  9 10  1  0  0  0
  9  1  1  0  0  0
  2 11  1  0  0  0
  6 12  1  0  0  0
  8 13  1  0  0  0
 10 14  1  0  0  0
M  END
>  <CHROM.0>
-47.25883187,-59.06769512,-48.78166703,-179.33325439,179.43812870,71.45205804
-53.77623312

>  <CHROM.1>
-59.16427718,73.13860811,147.35824652,67.44388857,64.68305028,25.52282800
25.65974758,18.48150738,0.05328641,-0.17599839,2.57801226

>  <RI>
2.0787e+07

>  <Rbt.Current_Directory>
/extra/banzai2/j5wagner/CELPP/2016_10_17_rdock_implementation/normal_run/tutorialVideo/tutorial_rdock_implementation/full_week_run/4-docking/5m93/LMCSS_1ogw_docking

>  <Rbt.Executable>
rbdock ($Id: //depot/dev/client3/rdock/2013.1/src/exe/rbdock.cxx#4 $)

>  <Rbt.Library>
libRbt.so (2013.1, Build901 2013/11/27)

>  <Rbt.Parameter_File>
/home/j5wagner/env_00/source/rDock/rDock_2013.1_src//data/scripts/dock.prm

>  <Rbt.Receptor>
/extra/banzai2/j5wagner/CELPP/2016_10_17_rdock_implementation/normal_run/tutorialVideo/tutorial_rdock_implementation/full_week_run/4-docking/5m93/LMCSS_1ogw_tech_prep/rDockGridGenInput.prm

>  <SCORE>
-18.6329

>  <SCORE.INTER>
-10.5244

>  <SCORE.INTER.CONST>
1

>  <SCORE.INTER.POLAR>
-1.3938

>  <SCORE.INTER.REPUL>
0

>  <SCORE.INTER.ROT>
1

>  <SCORE.INTER.VDW>
-12.1855

>  <SCORE.INTER.norm>
-1.05244

>  <SCORE.INTRA>
0.155067

>  <SCORE.INTRA.DIHEDRAL>
0.387551

>  <SCORE.INTRA.DIHEDRAL.0>
5.02738

>  <SCORE.INTRA.POLAR>
-0.156478

>  <SCORE.INTRA.POLAR.0>
0

>  <SCORE.INTRA.REPUL>
0

>  <SCORE.INTRA.REPUL.0>
0

>  <SCORE.INTRA.VDW>
0.493316

>  <SCORE.INTRA.VDW.0>
-0.709724

>  <SCORE.INTRA.norm>
0.0155067

>  <SCORE.RESTR>
0

>  <SCORE.RESTR.CAVITY>
0

>  <SCORE.RESTR.norm>
0

>  <SCORE.SYSTEM>
-8.26356

>  <SCORE.SYSTEM.CONST>
0

>  <SCORE.SYSTEM.DIHEDRAL>
1.51719

>  <SCORE.SYSTEM.POLAR>
-2.84278

>  <SCORE.SYSTEM.VDW>
0.64328

>  <SCORE.SYSTEM.norm>
-0.826356

>  <SCORE.heavy>
10

>  <SCORE.norm>
-1.86329

$$$$

  rDOCK(R)          3D
libRbt.so/2013.1/901 2013/11/27
 14 14  0  0  0  0  0  0  0  0999 V2000
   26.2479   31.2115   14.4699 C   0  0  0  0  0  0
   27.3306   31.6004   15.2765 O   0  0  0  0  0  0
   26.6920   30.4417   13.3703 O   0  0  0  0  0  0
   25.8298   29.3293   13.2514 C   0  0  0  0  0  0
   25.3952   29.1552   11.7908 C   0  0  0  0  0  0
   24.7297   30.3032   11.3384 O   0  0  0  0  0  0
   24.6349   29.5299   14.1798 C   0  0  0  0  0  0
   24.1766   28.3024   14.6851 O   0  0  0  0  0  0
   25.2067   30.4197   15.2553 C   0  0  0  0  0  0
   25.8225   29.6572   16.2650 O   0  0  0  0  0  0
   27.9277   32.1653   14.7193 H   0  0  0  0  0  0
   24.5762   30.1779   10.3654 H   0  0  0  0  0  0
   23.8349   27.7894   13.9069 H   0  0  0  0  0  0
   25.0952   29.1921   16.7550 H   0  0  0  0  0  0
  1  2  1  0  0  0
  1  3  1  0  0  0
  3  4  1  0  0  0
  4  5  1  0  0  0
  5  6  1  0  0  0
  4  7  1  0  0  0
  7  8  1  0  0  0
  7  9  1  0  0  0
  9 10  1  0  0  0
  9  1  1  0  0  0
  2 11  1  0  0  0
  6 12  1  0  0  0
  8 13  1  0  0  0
 10 14  1  0  0  0
M  END
>  <CHROM.0>
-49.39055048,173.60421341,-48.39015758,61.80413905,177.87448407,-61.50359734
62.30412978

>  <CHROM.1>
61.80048505,-59.45697792,173.06200018,-65.12636340,178.20153657,25.61278868
29.99154377,13.99185965,-1.07357999,-0.80373208,-1.47565096

>  <RI>
2.0787e+07

>  <Rbt.Current_Directory>
/extra/banzai2/j5wagner/CELPP/2016_10_17_rdock_implementation/normal_run/tutorialVideo/tutorial_rdock_implementation/full_week_run/4-docking/5m93/LMCSS_1ogw_docking

>  <Rbt.Executable>
rbdock ($Id: //depot/dev/client3/rdock/2013.1/src/exe/rbdock.cxx#4 $)

>  <Rbt.Library>
libRbt.so (2013.1, Build901 2013/11/27)

>  <Rbt.Parameter_File>
/home/j5wagner/env_00/source/rDock/rDock_2013.1_src//data/scripts/dock.prm

>  <Rbt.Receptor>
/extra/banzai2/j5wagner/CELPP/2016_10_17_rdock_implementation/normal_run/tutorialVideo/tutorial_rdock_implementation/full_week_run/4-docking/5m93/LMCSS_1ogw_tech_prep/rDockGridGenInput.prm

>  <SCORE>
-17.2423

>  <SCORE.INTER>
-5.89999

>  <SCORE.INTER.CONST>
1

>  <SCORE.INTER.POLAR>
0

>  <SCORE.INTER.REPUL>
0

>  <SCORE.INTER.ROT>
1

>  <SCORE.INTER.VDW>
-12.3

>  <SCORE.INTER.norm>
-0.589999

>  <SCORE.INTRA>
-2.04722

>  <SCORE.INTRA.DIHEDRAL>
-4.27855

>  <SCORE.INTRA.DIHEDRAL.0>
5.02738

>  <SCORE.INTRA.POLAR>
0

>  <SCORE.INTRA.POLAR.0>
0

>  <SCORE.INTRA.REPUL>
0

>  <SCORE.INTRA.REPUL.0>
0

>  <SCORE.INTRA.VDW>
0.0920501

>  <SCORE.INTRA.VDW.0>
-0.709724

>  <SCORE.INTRA.norm>
-0.204722

>  <SCORE.RESTR>
0

>  <SCORE.RESTR.CAVITY>
0

>  <SCORE.RESTR.norm>
0

>  <SCORE.SYSTEM>
-9.29507

>  <SCORE.SYSTEM.CONST>
0

>  <SCORE.SYSTEM.DIHEDRAL>
0.850977

>  <SCORE.SYSTEM.POLAR>
-2.79948

>  <SCORE.SYSTEM.REPUL>
0.0267071

>  <SCORE.SYSTEM.VDW>
-0.335872

>  <SCORE.SYSTEM.norm>
-0.929507

>  <SCORE.heavy>
10

>  <SCORE.norm>
-1.72423

$$$$

  rDOCK(R)          3D
libRbt.so/2013.1/901 2013/11/27
 14 14  0  0  0  0  0  0  0  0999 V2000
   31.1118   26.5810   23.4900 C   0  0  0  0  0  0
   31.4189   27.8089   24.1000 O   0  0  0  0  0  0
   30.6507   25.6469   24.4459 O   0  0  0  0  0  0
   29.5120   25.0094   23.9057 C   0  0  0  0  0  0
   29.6214   23.4911   24.0932 C   0  0  0  0  0  0
   30.7824   23.0044   23.4761 O   0  0  0  0  0  0
   29.3840   25.3925   22.4337 C   0  0  0  0  0  0
   28.0362   25.4616   22.0454 O   0  0  0  0  0  0
   30.0675   26.7364   22.3886 C   0  0  0  0  0  0
   29.1664   27.7704   22.7030 O   0  0  0  0  0  0
   32.0159   28.3062   23.4815 H   0  0  0  0  0  0
   31.5503   23.4324   23.9376 H   0  0  0  0  0  0
   28.0346   25.6822   21.0776 H   0  0  0  0  0  0
   28.4003   27.6812   22.0781 H   0  0  0  0  0  0
  1  2  1  0  0  0
  1  3  1  0  0  0
  3  4  1  0  0  0
  4  5  1  0  0  0
  5  6  1  0  0  0
  4  7  1  0  0  0
  7  8  1  0  0  0
  7  9  1  0  0  0
  9 10  1  0  0  0
  9  1  1  0  0  0
  2 11  1  0  0  0
  6 12  1  0  0  0
  8 13  1  0  0  0
 10 14  1  0  0  0
M  END
>  <CHROM.0>
-45.88924083,-59.64230975,98.33824961,-55.01463512,-13.60043537,71.39772771
65.35571324

>  <CHROM.1>
160.68367736,-58.34125147,62.50346596,-178.06740039,-166.66905182,29.97697682
25.71585710,23.30013765,-1.48968008,0.62314421,2.98253170

>  <RI>
2.0787e+07

>  <Rbt.Current_Directory>
/extra/banzai2/j5wagner/CELPP/2016_10_17_rdock_implementation/normal_run/tutorialVideo/tutorial_rdock_implementation/full_week_run/4-docking/5m93/LMCSS_1ogw_docking

>  <Rbt.Executable>
rbdock ($Id: //depot/dev/client3/rdock/2013.1/src/exe/rbdock.cxx#4 $)

>  <Rbt.Library>
libRbt.so (2013.1, Build901 2013/11/27)

>  <Rbt.Parameter_File>
/home/j5wagner/env_00/source/rDock/rDock_2013.1_src//data/scripts/dock.prm

>  <Rbt.Receptor>
/extra/banzai2/j5wagner/CELPP/2016_10_17_rdock_implementation/normal_run/tutorialVideo/tutorial_rdock_implementation/full_week_run/4-docking/5m93/LMCSS_1ogw_tech_prep/rDockGridGenInput.prm

>  <SCORE>
-16.9631

>  <SCORE.INTER>
-9.865

>  <SCORE.INTER.CONST>
1

>  <SCORE.INTER.POLAR>
-3.17895

>  <SCORE.INTER.REPUL>
0

>  <SCORE.INTER.ROT>
1

>  <SCORE.INTER.VDW>
-5.45655

>  <SCORE.INTER.norm>
-0.9865

>  <SCORE.INTRA>
-0.822418

>  <SCORE.INTRA.DIHEDRAL>
-2.14134

>  <SCORE.INTRA.DIHEDRAL.0>
5.02738

>  <SCORE.INTRA.POLAR>
-0.0023181

>  <SCORE.INTRA.POLAR.0>
0

>  <SCORE.INTRA.REPUL>
0

>  <SCORE.INTRA.REPUL.0>
0

>  <SCORE.INTRA.VDW>
0.256133

>  <SCORE.INTRA.VDW.0>
-0.709724

>  <SCORE.INTRA.norm>
-0.0822418

>  <SCORE.RESTR>
1.44914

>  <SCORE.RESTR.CAVITY>
1.44914

>  <SCORE.RESTR.norm>
0.144914

>  <SCORE.SYSTEM>
-7.7248

>  <SCORE.SYSTEM.CONST>
0

>  <SCORE.SYSTEM.DIHEDRAL>
4.12572

>  <SCORE.SYSTEM.POLAR>
-2.94933

>  <SCORE.SYSTEM.REPUL>
0.0372244

>  <SCORE.SYSTEM.VDW>
0.0539512

>  <SCORE.SYSTEM.norm>
-0.77248

>  <SCORE.heavy>
10

>  <SCORE.norm>
-1.69631

$$$$

  rDOCK(R)          3D
libRbt.so/2013.1/901 2013/11/27
 14 14  0  0  0  0  0  0  0  0999 V2000
   30.4791   27.2034   23.0229 C   0  0  0  0  0  0
   31.7669   27.6523   23.3606 O   0  0  0  0  0  0
   30.4158   26.8402   21.6579 O   0  0  0  0  0  0
   29.7321   25.6072   21.5751 C   0  0  0  0  0  0
   28.6659   25.6705   20.4743 C   0  0  0  0  0  0
   27.4594   26.1646   20.9896 O   0  0  0  0  0  0
   29.1233   25.2881   22.9380 C   0  0  0  0  0  0
   29.1053   23.9034   23.1711 O   0  0  0  0  0  0
   30.0433   26.0207   23.8827 C   0  0  0  0  0  0
   31.1507   25.2237   24.2264 O   0  0  0  0  0  0
   32.0558   28.2851   22.6519 H   0  0  0  0  0  0
   27.6178   27.1173   21.2204 H   0  0  0  0  0  0
   28.6812   23.7745   24.0594 H   0  0  0  0  0  0
   30.8037   24.4765   24.7801 H   0  0  0  0  0  0
  1  2  1  0  0  0
  1  3  1  0  0  0
  3  4  1  0  0  0
  4  5  1  0  0  0
  5  6  1  0  0  0
  4  7  1  0  0  0
  7  8  1  0  0  0
  7  9  1  0  0  0
  9 10  1  0  0  0
  9  1  1  0  0  0
  2 11  1  0  0  0
  6 12  1  0  0  0
  8 13  1  0  0  0
 10 14  1  0  0  0
M  END
>  <CHROM.0>
-164.69109246,-56.40327696,-162.18837852,-55.23888942,-169.91878986,70.37597165
63.74546645

>  <CHROM.1>
46.12088545,-87.90621361,67.88966529,-178.78535504,-179.92037335,29.80489833
25.95424765,22.54849028,-0.24057613,-0.70104824,-0.71540476

>  <RI>
2.0787e+07

>  <Rbt.Current_Directory>
/extra/banzai2/j5wagner/CELPP/2016_10_17_rdock_implementation/normal_run/tutorialVideo/tutorial_rdock_implementation/full_week_run/4-docking/5m93/LMCSS_1ogw_docking

>  <Rbt.Executable>
rbdock ($Id: //depot/dev/client3/rdock/2013.1/src/exe/rbdock.cxx#4 $)

>  <Rbt.Library>
libRbt.so (2013.1, Build901 2013/11/27)

>  <Rbt.Parameter_File>
/home/j5wagner/env_00/source/rDock/rDock_2013.1_src//data/scripts/dock.prm

>  <Rbt.Receptor>
/extra/banzai2/j5wagner/CELPP/2016_10_17_rdock_implementation/normal_run/tutorialVideo/tutorial_rdock_implementation/full_week_run/4-docking/5m93/LMCSS_1ogw_tech_prep/rDockGridGenInput.prm

>  <SCORE>
-15.475

>  <SCORE.INTER>
-5.69255

>  <SCORE.INTER.CONST>
1

>  <SCORE.INTER.POLAR>
-2.97078

>  <SCORE.INTER.REPUL>
2.82322e-05

>  <SCORE.INTER.ROT>
1

>  <SCORE.INTER.VDW>
-1.99203

>  <SCORE.INTER.norm>
-0.569255

>  <SCORE.INTRA>
-0.0372458

>  <SCORE.INTRA.DIHEDRAL>
-1.1002

>  <SCORE.INTRA.DIHEDRAL.0>
5.02738

>  <SCORE.INTRA.POLAR>
0

>  <SCORE.INTRA.POLAR.0>
0

>  <SCORE.INTRA.REPUL>
0

>  <SCORE.INTRA.REPUL.0>
0

>  <SCORE.INTRA.VDW>
0.512852

>  <SCORE.INTRA.VDW.0>
-0.709724

>  <SCORE.INTRA.norm>
-0.00372458

>  <SCORE.RESTR>
0.378301

>  <SCORE.RESTR.CAVITY>
0.378301

>  <SCORE.RESTR.norm>
0.0378301

>  <SCORE.SYSTEM>
-10.1236

>  <SCORE.SYSTEM.CONST>
0

>  <SCORE.SYSTEM.DIHEDRAL>
2.13653

>  <SCORE.SYSTEM.POLAR>
-3.21408

>  <SCORE.SYSTEM.VDW>
-0.263945

>  <SCORE.SYSTEM.norm>
-1.01236

>  <SCORE.heavy>
10

>  <SCORE.norm>
-1.5475

$$$$

  rDOCK(R)          3D
libRbt.so/2013.1/901 2013/11/27
 14 14  0  0  0  0  0  0  0  0999 V2000
   30.7677   27.1144   23.4011 C   0  0  0  0  0  0
   32.1061   27.4699   23.6385 O   0  0  0  0  0  0
   30.5185   26.9938   22.0146 O   0  0  0  0  0  0
   29.7763   25.8088   21.8154 C   0  0  0  0  0  0
   28.5848   26.0846   20.8897 C   0  0  0  0  0  0
   28.0661   27.3650   21.1283 O   0  0  0  0  0  0
   29.3291   25.2728   23.1728 C   0  0  0  0  0  0
   29.2794   23.8693   23.1698 O   0  0  0  0  0  0
   30.3911   25.8110   24.0989 C   0  0  0  0  0  0
   31.4967   24.9424   24.1560 O   0  0  0  0  0  0
   32.3193   28.2364   23.0442 H   0  0  0  0  0  0
   27.6791   27.3491   22.0425 H   0  0  0  0  0  0
   28.9490   23.5989   24.0660 H   0  0  0  0  0  0
   31.1938   24.1258   24.6323 H   0  0  0  0  0  0
  1  2  1  0  0  0
  1  3  1  0  0  0
  3  4  1  0  0  0
  4  5  1  0  0  0
  5  6  1  0  0  0
  4  7  1  0  0  0
  7  8  1  0  0  0
  7  9  1  0  0  0
  9 10  1  0  0  0
  9  1  1  0  0  0
  2 11  1  0  0  0
  6 12  1  0  0  0
  8 13  1  0  0  0
 10 14  1  0  0  0
M  END
>  <CHROM.0>
-47.62475294,173.87587579,72.10376248,62.50471112,-177.00394425,-172.89839231
174.10293028

>  <CHROM.1>
48.66312165,-35.66509005,-66.66202920,-177.80942720,178.99599350,30.04794865
26.07213520,22.76199925,-0.45939389,-0.63354154,-0.48730036

>  <RI>
2.0787e+07

>  <Rbt.Current_Directory>
/extra/banzai2/j5wagner/CELPP/2016_10_17_rdock_implementation/normal_run/tutorialVideo/tutorial_rdock_implementation/full_week_run/4-docking/5m93/LMCSS_1ogw_docking

>  <Rbt.Executable>
rbdock ($Id: //depot/dev/client3/rdock/2013.1/src/exe/rbdock.cxx#4 $)

>  <Rbt.Library>
libRbt.so (2013.1, Build901 2013/11/27)

>  <Rbt.Parameter_File>
/home/j5wagner/env_00/source/rDock/rDock_2013.1_src//data/scripts/dock.prm

>  <Rbt.Receptor>
/extra/banzai2/j5wagner/CELPP/2016_10_17_rdock_implementation/normal_run/tutorialVideo/tutorial_rdock_implementation/full_week_run/4-docking/5m93/LMCSS_1ogw_tech_prep/rDockGridGenInput.prm

>  <SCORE>
-7.87234

>  <SCORE.INTER>
1.86521

>  <SCORE.INTER.CONST>
1

>  <SCORE.INTER.POLAR>
-3.49421

>  <SCORE.INTER.REPUL>
0.00794609

>  <SCORE.INTER.ROT>
1

>  <SCORE.INTER.VDW>
7.30579

>  <SCORE.INTER.norm>
0.186521

>  <SCORE.INTRA>
-0.845349

>  <SCORE.INTRA.DIHEDRAL>
-1.95376

>  <SCORE.INTRA.DIHEDRAL.0>
5.02738

>  <SCORE.INTRA.POLAR>
0

>  <SCORE.INTRA.POLAR.0>
0

>  <SCORE.INTRA.REPUL>
0

>  <SCORE.INTRA.REPUL.0>
0

>  <SCORE.INTRA.VDW>
0.131531

>  <SCORE.INTRA.VDW.0>
-0.709724

>  <SCORE.INTRA.norm>
-0.0845349

>  <SCORE.RESTR>
0.620565

>  <SCORE.RESTR.CAVITY>
0.620565

>  <SCORE.RESTR.norm>
0.0620565

>  <SCORE.SYSTEM>
-9.51277

>  <SCORE.SYSTEM.CONST>
0

>  <SCORE.SYSTEM.DIHEDRAL>
1.34905

>  <SCORE.SYSTEM.POLAR>
-3.00786

>  <SCORE.SYSTEM.REPUL>
0.0302692

>  <SCORE.SYSTEM.VDW>
-0.111924

>  <SCORE.SYSTEM.norm>
-0.951277

>  <SCORE.heavy>
10

>  <SCORE.norm>
-0.787234

$$$$
