
 OpenBabel12121610263D
libRbt.so/2013.1/901 2013/11/27
 25 26  0  0  1  0  0  0  0  0999 V2000
    4.2135   11.0723   14.1658 C   0  0  1  0  0  0  0  0  0  0  0  0
    4.2782   12.3783   14.6873 O   0  0  0  0  0  0  0  0  0  0  0  0
    3.4698   10.1256   15.0665 C   0  0  0  0  0  0  0  0  0  0  0  0
    2.7991    9.1618   14.0851 C   0  0  2  0  0  0  0  0  0  0  0  0
    3.4259    7.8218   14.1605 N   0  0  0  0  0  0  0  0  0  0  0  0
    2.7321    6.7677   14.6991 C   0  0  0  0  0  0  0  0  0  0  0  0
    3.3102    5.5051   14.8000 C   0  0  0  0  0  0  0  0  0  0  0  0
    4.6106    5.3266   14.3326 C   0  0  0  0  0  0  0  0  0  0  0  0
    5.1961    4.1740   14.4085 N   0  0  0  0  0  0  0  0  0  0  0  0
    5.2681    6.3751   13.7825 N   0  0  0  0  0  0  0  0  0  0  0  0
    4.7003    7.6056   13.6798 C   0  0  0  0  0  0  0  0  0  0  0  0
    5.4478    8.6160   13.0682 O   0  0  0  0  0  0  0  0  0  0  0  0
    2.8803    9.6927   12.7732 O   0  0  0  0  0  0  0  0  0  0  0  0
    3.4199   10.9904   12.8659 C   0  0  2  0  0  0  0  0  0  0  0  0
    4.2886   11.2777   11.6331 C   0  0  0  0  0  0  0  0  0  0  0  0
    4.4585   10.1068   10.8595 O   0  0  0  0  0  0  0  0  0  0  0  0
    5.3747   10.4530    9.4598 P   0  0  0  0  0  0  0  0  0  0  0  0
    4.4493   10.7878    8.3107 O   0  0  0  0  0  0  0  0  0  0  0  0
    6.4374   11.7434    9.7370 O   0  0  0  0  0  0  0  0  0  0  0  0
    6.2784    9.0832    9.0510 O   0  0  0  0  0  0  0  0  0  0  0  0
    4.9857   12.8752   14.1990 H   0  0  0  0  0  0  0  0  0  0  0  0
    4.7300    3.3342   14.8213 H   0  0  0  0  0  0  0  0  0  0  0  0
    6.2263    8.4487   12.4461 H   0  0  0  0  0  0  0  0  0  0  0  0
    6.8467   11.5589   10.6199 H   0  0  0  0  0  0  0  0  0  0  0  0
    6.8656    8.9279    9.8333 H   0  0  0  0  0  0  0  0  0  0  0  0
  1  2  1  1  0  0  0
  1  3  1  0  0  0  0
  2 21  1  0  0  0  0
  3  4  1  0  0  0  0
  4  5  1  6  0  0  0
  4 13  1  0  0  0  0
  5  6  1  0  0  0  0
  6  7  2  0  0  0  0
  7  8  1  0  0  0  0
  8  9  2  0  0  0  0
  8 10  1  0  0  0  0
  9 22  1  0  0  0  0
 10 11  2  0  0  0  0
 11 12  1  0  0  0  0
 11  5  1  0  0  0  0
 12 23  1  0  0  0  0
 13 14  1  0  0  0  0
 14 15  1  6  0  0  0
 14  1  1  0  0  0  0
 15 16  1  0  0  0  0
 16 17  1  0  0  0  0
 17 18  2  0  0  0  0
 17 19  1  0  0  0  0
 17 20  1  0  0  0  0
 19 24  1  0  0  0  0
 20 25  1  0  0  0  0
M  END
