
  rDOCK(R)          3D
libRbt.so/2013.1/901 2013/11/27
 25 26  0  0  0  0  0  0  0  0999 V2000
    3.3313    9.0379   13.9415 C   0  0  0  0  0  0
    2.1297    8.7205   14.6027 O   0  0  0  0  0  0
    3.1546   10.1110   12.9033 C   0  0  0  0  0  0
    4.4882   10.8607   12.9432 C   0  0  0  0  0  0
    5.2663   10.6056   11.7088 N   0  0  0  0  0  0
    5.2055   11.4913   10.6626 C   0  0  0  0  0  0
    5.9111   11.2597    9.4850 C   0  0  0  0  0  0
    6.6932   10.1105    9.3899 C   0  0  0  0  0  0
    7.3642    9.8455    8.3143 N   0  0  0  0  0  0
    6.7578    9.2623   10.4437 N   0  0  0  0  0  0
    6.0726    9.4927   11.5947 C   0  0  0  0  0  0
    6.2286    8.5749   12.6373 O   0  0  0  0  0  0
    5.2139   10.4703   14.0966 O   0  0  0  0  0  0
    4.3794    9.6411   14.8709 C   0  0  0  0  0  0
    5.2245    8.5677   15.5716 C   0  0  0  0  0  0
    4.4056    7.5124   16.0342 O   0  0  0  0  0  0
    4.5725    6.1485   15.0192 P   0  0  0  0  0  0
    4.4968    6.5753   13.5698 O   0  0  0  0  0  0
    6.0417    5.3556   15.3091 O   0  0  0  0  0  0
    3.3042    5.0764   15.3390 O   0  0  0  0  0  0
    2.3287    8.0509   15.3084 H   0  0  0  0  0  0
    7.3496   10.4698    7.4759 H   0  0  0  0  0  0
    5.4888    7.9819   12.9868 H   0  0  0  0  0  0
    6.7416    6.0395   15.1563 H   0  0  0  0  0  0
    2.4920    5.5489   15.0262 H   0  0  0  0  0  0
  1  2  1  0  0  0
  1  3  1  0  0  0
  3  4  1  0  0  0
  4  5  1  0  0  0
  5  6  1  0  0  0
  6  7  2  0  0  0
  7  8  1  0  0  0
  8  9  2  0  0  0
  8 10  1  0  0  0
 10 11  2  0  0  0
 11 12  1  0  0  0
  4 13  1  0  0  0
 13 14  1  0  0  0
 14 15  1  0  0  0
 15 16  1  0  0  0
 16 17  1  0  0  0
 17 18  2  0  0  0
 17 19  1  0  0  0
 17 20  1  0  0  0
 14  1  1  0  0  0
 11  5  1  0  0  0
  2 21  1  0  0  0
  9 22  1  0  0  0
 12 23  1  0  0  0
 19 24  1  0  0  0
 20 25  1  0  0  0
M  END
>  <CHROM.0>
167.69519251,60.27623909,-54.65212100,-62.04335598,46.71597635,179.54911866
-154.22114678,174.14702641,-171.77267551,63.62285852,6.90308202,57.55487832

>  <CHROM.1>
-176.52192397,95.77966962,66.16765808,-43.52328153,104.45222688,-46.10854351
-57.48705706,67.25409078,4.95216080,8.65814615,13.15480039,2.01987798,-0.84322258
2.56029353

>  <Name>

>  <RI>
3.49024e+07

>  <Rbt.Current_Directory>
/extra/banzai2/j5wagner/CELPP/2016_10_17_rdock_implementation/normal_run/tutorialVideo/tutorial_rdock_implementation/full_week_run/4-docking/5wrn/hiTanimoto_3hb8_docking

>  <Rbt.Executable>
rbdock ($Id: //depot/dev/client3/rdock/2013.1/src/exe/rbdock.cxx#4 $)

>  <Rbt.Library>
libRbt.so (2013.1, Build901 2013/11/27)

>  <Rbt.Parameter_File>
/home/j5wagner/env_00/source/rDock/rDock_2013.1_src//data/scripts/dock.prm

>  <Rbt.Receptor>
/extra/banzai2/j5wagner/CELPP/2016_10_17_rdock_implementation/normal_run/tutorialVideo/tutorial_rdock_implementation/full_week_run/4-docking/5wrn/hiTanimoto_3hb8_tech_prep/rDockGridGenInput.prm

>  <SCORE>
-22.5269

>  <SCORE.INTER>
-10.593

>  <SCORE.INTER.CONST>
1

>  <SCORE.INTER.POLAR>
-0.959166

>  <SCORE.INTER.REPUL>
0.522649

>  <SCORE.INTER.ROT>
4

>  <SCORE.INTER.VDW>
-19.345

>  <SCORE.INTER.norm>
-0.529648

>  <SCORE.INTRA>
-2.74857

>  <SCORE.INTRA.DIHEDRAL>
4.93505

>  <SCORE.INTRA.DIHEDRAL.0>
8.98184

>  <SCORE.INTRA.POLAR>
-1.21634

>  <SCORE.INTRA.POLAR.0>
0

>  <SCORE.INTRA.REPUL>
0

>  <SCORE.INTRA.REPUL.0>
0

>  <SCORE.INTRA.VDW>
-1.08053

>  <SCORE.INTRA.VDW.0>
-1.60828

>  <SCORE.INTRA.norm>
-0.137429

>  <SCORE.RESTR>
0

>  <SCORE.RESTR.CAVITY>
0

>  <SCORE.RESTR.norm>
0

>  <SCORE.SYSTEM>
-9.18541

>  <SCORE.SYSTEM.CONST>
0

>  <SCORE.SYSTEM.DIHEDRAL>
7.84256

>  <SCORE.SYSTEM.POLAR>
-4.25137

>  <SCORE.SYSTEM.REPUL>
0.778825

>  <SCORE.SYSTEM.VDW>
-2.54614

>  <SCORE.SYSTEM.norm>
-0.459271

>  <SCORE.heavy>
20

>  <SCORE.norm>
-1.12635

$$$$

  rDOCK(R)          3D
libRbt.so/2013.1/901 2013/11/27
 25 26  0  0  0  0  0  0  0  0999 V2000
    5.0158   10.1726   14.9863 C   0  0  0  0  0  0
    4.9161   11.4558   15.5567 O   0  0  0  0  0  0
    4.4344    9.1012   15.8664 C   0  0  0  0  0  0
    3.8742    8.0896   14.8639 C   0  0  0  0  0  0
    4.6803    6.8468   14.8724 N   0  0  0  0  0  0
    6.0422    6.9120   15.0263 C   0  0  0  0  0  0
    6.8212    5.7581   15.0150 C   0  0  0  0  0  0
    6.1891    4.5270   14.8535 C   0  0  0  0  0  0
    6.8684    3.4246   14.8300 N   0  0  0  0  0  0
    4.8413    4.4841   14.7277 N   0  0  0  0  0  0
    4.0818    5.6111   14.7445 C   0  0  0  0  0  0
    2.6961    5.4611   14.6390 O   0  0  0  0  0  0
    3.8449    8.6729   13.5722 O   0  0  0  0  0  0
    4.2044   10.0283   13.7030 C   0  0  0  0  0  0
    4.9904   10.4761   12.4624 C   0  0  0  0  0  0
    4.1879   10.3798   11.3027 O   0  0  0  0  0  0
    5.1453   10.5939    9.9041 P   0  0  0  0  0  0
    5.7801   11.9670    9.9223 O   0  0  0  0  0  0
    6.3490    9.4052    9.8079 O   0  0  0  0  0  0
    4.1503   10.4710    8.5421 O   0  0  0  0  0  0
    5.3240   12.1090   14.9300 H   0  0  0  0  0  0
    7.9092    3.4049   14.9261 H   0  0  0  0  0  0
    2.0359    6.2229   14.7083 H   0  0  0  0  0  0
    6.8718    9.6286    8.9969 H   0  0  0  0  0  0
    3.5131   11.2243    8.6286 H   0  0  0  0  0  0
  1  2  1  0  0  0
  1  3  1  0  0  0
  3  4  1  0  0  0
  4  5  1  0  0  0
  5  6  1  0  0  0
  6  7  2  0  0  0
  7  8  1  0  0  0
  8  9  2  0  0  0
  8 10  1  0  0  0
 10 11  2  0  0  0
 11 12  1  0  0  0
  4 13  1  0  0  0
 13 14  1  0  0  0
 14 15  1  0  0  0
 15 16  1  0  0  0
 16 17  1  0  0  0
 17 18  2  0  0  0
 17 19  1  0  0  0
 17 20  1  0  0  0
 14  1  1  0  0  0
 11  5  1  0  0  0
  2 21  1  0  0  0
  9 22  1  0  0  0
 12 23  1  0  0  0
 19 24  1  0  0  0
 20 25  1  0  0  0
M  END
>  <CHROM.0>
171.20862162,179.32792137,-53.37652197,-176.36460252,173.58804520,-179.19432276
-145.98381682,5.85081295,-176.53063096,-68.91204000,18.41927404,-48.24633002

>  <CHROM.1>
179.50549321,-37.32520324,-4.16487721,-177.58703917,-169.38699566,-61.08702844
-177.70672175,62.88137634,4.94491313,8.43862670,13.13865706,1.66458211,1.30806470
-0.81338529

>  <Name>

>  <RI>
3.49024e+07

>  <Rbt.Current_Directory>
/extra/banzai2/j5wagner/CELPP/2016_10_17_rdock_implementation/normal_run/tutorialVideo/tutorial_rdock_implementation/full_week_run/4-docking/5wrn/hiTanimoto_3hb8_docking

>  <Rbt.Executable>
rbdock ($Id: //depot/dev/client3/rdock/2013.1/src/exe/rbdock.cxx#4 $)

>  <Rbt.Library>
libRbt.so (2013.1, Build901 2013/11/27)

>  <Rbt.Parameter_File>
/home/j5wagner/env_00/source/rDock/rDock_2013.1_src//data/scripts/dock.prm

>  <Rbt.Receptor>
/extra/banzai2/j5wagner/CELPP/2016_10_17_rdock_implementation/normal_run/tutorialVideo/tutorial_rdock_implementation/full_week_run/4-docking/5wrn/hiTanimoto_3hb8_tech_prep/rDockGridGenInput.prm

>  <SCORE>
-18.4694

>  <SCORE.INTER>
-3.49851

>  <SCORE.INTER.CONST>
1

>  <SCORE.INTER.POLAR>
-0.523644

>  <SCORE.INTER.REPUL>
0.38663

>  <SCORE.INTER.ROT>
4

>  <SCORE.INTER.VDW>
-13.0513

>  <SCORE.INTER.norm>
-0.174925

>  <SCORE.INTRA>
-1.9377

>  <SCORE.INTRA.DIHEDRAL>
-5.94447

>  <SCORE.INTRA.DIHEDRAL.0>
8.98184

>  <SCORE.INTRA.POLAR>
0

>  <SCORE.INTRA.POLAR.0>
0

>  <SCORE.INTRA.REPUL>
0

>  <SCORE.INTRA.REPUL.0>
0

>  <SCORE.INTRA.VDW>
1.03454

>  <SCORE.INTRA.VDW.0>
-1.60828

>  <SCORE.INTRA.norm>
-0.0968848

>  <SCORE.RESTR>
0

>  <SCORE.RESTR.CAVITY>
0

>  <SCORE.RESTR.norm>
0

>  <SCORE.SYSTEM>
-13.0332

>  <SCORE.SYSTEM.CONST>
0

>  <SCORE.SYSTEM.DIHEDRAL>
5.69678

>  <SCORE.SYSTEM.POLAR>
-4.25137

>  <SCORE.SYSTEM.REPUL>
0.0579786

>  <SCORE.SYSTEM.VDW>
-1.71677

>  <SCORE.SYSTEM.norm>
-0.651658

>  <SCORE.heavy>
20

>  <SCORE.norm>
-0.923468

$$$$

  rDOCK(R)          3D
libRbt.so/2013.1/901 2013/11/27
 25 26  0  0  0  0  0  0  0  0999 V2000
    4.2809   10.7175   14.0510 C   0  0  0  0  0  0
    4.5019   12.1020   14.1779 O   0  0  0  0  0  0
    2.8695   10.3235   14.3879 C   0  0  0  0  0  0
    2.6027    9.1416   13.4531 C   0  0  0  0  0  0
    2.5224    7.8776   14.2214 N   0  0  0  0  0  0
    1.3604    7.5388   14.8676 C   0  0  0  0  0  0
    1.2702    6.3666   15.6135 C   0  0  0  0  0  0
    2.3843    5.5329   15.6849 C   0  0  0  0  0  0
    2.3546    4.4343   16.3701 N   0  0  0  0  0  0
    3.5131    5.8748   15.0193 N   0  0  0  0  0  0
    3.5977    7.0168   14.2871 C   0  0  0  0  0  0
    4.7951    7.2665   13.6107 O   0  0  0  0  0  0
    3.6212    9.0797   12.4691 O   0  0  0  0  0  0
    4.4337   10.2206   12.6171 C   0  0  0  0  0  0
    5.8878    9.8671   12.2742 C   0  0  0  0  0  0
    5.9768    9.3386   10.9662 O   0  0  0  0  0  0
    5.8040   10.5872    9.8130 P   0  0  0  0  0  0
    5.4235   11.8768   10.5064 O   0  0  0  0  0  0
    7.2393   10.8058    8.9393 O   0  0  0  0  0  0
    4.5713   10.1630    8.7355 O   0  0  0  0  0  0
    4.2913   12.3679   15.1111 H   0  0  0  0  0  0
    1.5069    4.1254   16.8982 H   0  0  0  0  0  0
    5.7115    7.1778   14.0273 H   0  0  0  0  0  0
    7.0473   11.5392    8.3018 H   0  0  0  0  0  0
    4.4451   10.9665    8.1705 H   0  0  0  0  0  0
  1  2  1  0  0  0
  1  3  1  0  0  0
  3  4  1  0  0  0
  4  5  1  0  0  0
  5  6  1  0  0  0
  6  7  2  0  0  0
  7  8  1  0  0  0
  8  9  2  0  0  0
  8 10  1  0  0  0
 10 11  2  0  0  0
 11 12  1  0  0  0
  4 13  1  0  0  0
 13 14  1  0  0  0
 14 15  1  0  0  0
 15 16  1  0  0  0
 16 17  1  0  0  0
 17 18  2  0  0  0
 17 19  1  0  0  0
 17 20  1  0  0  0
 14  1  1  0  0  0
 11  5  1  0  0  0
  2 21  1  0  0  0
  9 22  1  0  0  0
 12 23  1  0  0  0
 19 24  1  0  0  0
 20 25  1  0  0  0
M  END
>  <CHROM.0>
164.89595519,62.88591079,-55.22595963,-61.55483071,-169.85106077,61.51207109
-149.89812072,4.85220193,-58.56195998,179.20058603,179.59445786,179.88022118

>  <CHROM.1>
58.26752675,81.09131943,133.52829662,176.60328995,74.48882083,-7.40139813
179.93377389,173.14408735,4.14972923,9.00348199,12.79097106,0.55923827,1.02550033
0.07004997

>  <Name>

>  <RI>
3.49024e+07

>  <Rbt.Current_Directory>
/extra/banzai2/j5wagner/CELPP/2016_10_17_rdock_implementation/normal_run/tutorialVideo/tutorial_rdock_implementation/full_week_run/4-docking/5wrn/hiTanimoto_3hb8_docking

>  <Rbt.Executable>
rbdock ($Id: //depot/dev/client3/rdock/2013.1/src/exe/rbdock.cxx#4 $)

>  <Rbt.Library>
libRbt.so (2013.1, Build901 2013/11/27)

>  <Rbt.Parameter_File>
/home/j5wagner/env_00/source/rDock/rDock_2013.1_src//data/scripts/dock.prm

>  <Rbt.Receptor>
/extra/banzai2/j5wagner/CELPP/2016_10_17_rdock_implementation/normal_run/tutorialVideo/tutorial_rdock_implementation/full_week_run/4-docking/5wrn/hiTanimoto_3hb8_tech_prep/rDockGridGenInput.prm

>  <SCORE>
-31.6519

>  <SCORE.INTER>
-17.5464

>  <SCORE.INTER.CONST>
1

>  <SCORE.INTER.POLAR>
-2.44144

>  <SCORE.INTER.REPUL>
0

>  <SCORE.INTER.ROT>
4

>  <SCORE.INTER.VDW>
-18.6455

>  <SCORE.INTER.norm>
-0.87732

>  <SCORE.INTRA>
0.971592

>  <SCORE.INTRA.DIHEDRAL>
-0.582364

>  <SCORE.INTRA.DIHEDRAL.0>
8.98184

>  <SCORE.INTRA.POLAR>
0

>  <SCORE.INTRA.POLAR.0>
0

>  <SCORE.INTRA.REPUL>
0.0134814

>  <SCORE.INTRA.REPUL.0>
0

>  <SCORE.INTRA.VDW>
1.19537

>  <SCORE.INTRA.VDW.0>
-1.60828

>  <SCORE.INTRA.norm>
0.0485796

>  <SCORE.RESTR>
0.00384106

>  <SCORE.RESTR.CAVITY>
0.00384106

>  <SCORE.RESTR.norm>
0.000192053

>  <SCORE.SYSTEM>
-15.0809

>  <SCORE.SYSTEM.CONST>
0

>  <SCORE.SYSTEM.DIHEDRAL>
1.97984

>  <SCORE.SYSTEM.POLAR>
-4.24393

>  <SCORE.SYSTEM.VDW>
-1.64148

>  <SCORE.SYSTEM.norm>
-0.754046

>  <SCORE.heavy>
20

>  <SCORE.norm>
-1.58259

$$$$

  rDOCK(R)          3D
libRbt.so/2013.1/901 2013/11/27
 25 26  0  0  0  0  0  0  0  0999 V2000
    3.4439    9.0933   13.4601 C   0  0  0  0  0  0
    2.3661    8.9995   12.5592 O   0  0  0  0  0  0
    3.5854    7.8700   14.3226 C   0  0  0  0  0  0
    5.0968    7.7662   14.5388 C   0  0  0  0  0  0
    5.4452    8.0850   15.9429 N   0  0  0  0  0  0
    5.2565    9.3551   16.4264 C   0  0  0  0  0  0
    5.5978    9.6820   17.7360 C   0  0  0  0  0  0
    6.1287    8.6883   18.5558 C   0  0  0  0  0  0
    6.4681    8.9417   19.7797 N   0  0  0  0  0  0
    6.2839    7.4356   18.0652 N   0  0  0  0  0  0
    5.9450    7.1168   16.7881 C   0  0  0  0  0  0
    6.1132    5.7892   16.3845 O   0  0  0  0  0  0
    5.7627    8.6326   13.6359 O   0  0  0  0  0  0
    4.7974    9.1682   12.7612 C   0  0  0  0  0  0
    5.1816   10.6067   12.3866 C   0  0  0  0  0  0
    6.4263   10.6316   11.7171 O   0  0  0  0  0  0
    6.2336   10.1289   10.0957 P   0  0  0  0  0  0
    6.7090    8.7010    9.9414 O   0  0  0  0  0  0
    4.6138   10.2509    9.6137 O   0  0  0  0  0  0
    7.1722   11.1265    9.1037 O   0  0  0  0  0  0
    1.5353    8.8461   13.0808 H   0  0  0  0  0  0
    6.3650    9.8910   20.2053 H   0  0  0  0  0  0
    5.9939    5.4653   15.4348 H   0  0  0  0  0  0
    4.3970   11.2158    9.6699 H   0  0  0  0  0  0
    6.9790   10.8173    8.1829 H   0  0  0  0  0  0
  1  2  1  0  0  0
  1  3  1  0  0  0
  3  4  1  0  0  0
  4  5  1  0  0  0
  5  6  1  0  0  0
  6  7  2  0  0  0
  7  8  1  0  0  0
  8  9  2  0  0  0
  8 10  1  0  0  0
 10 11  2  0  0  0
 11 12  1  0  0  0
  4 13  1  0  0  0
 13 14  1  0  0  0
 14 15  1  0  0  0
 15 16  1  0  0  0
 16 17  1  0  0  0
 17 18  2  0  0  0
 17 19  1  0  0  0
 17 20  1  0  0  0
 14  1  1  0  0  0
 11  5  1  0  0  0
  2 21  1  0  0  0
  9 22  1  0  0  0
 12 23  1  0  0  0
 19 24  1  0  0  0
 20 25  1  0  0  0
M  END
>  <CHROM.0>
170.82502161,-178.28140319,-55.92567797,-60.00307853,-169.73746289,179.68249539
-147.55478326,-2.81215052,178.64203064,66.76545254,-1.95137235,178.65894419

>  <CHROM.1>
57.59186088,-66.35131017,7.73354779,-178.76206780,77.24430242,-102.51789143
62.96178642,-177.01072956,5.47843420,8.99980328,13.78581903,1.57272743,-0.35026310
-1.29975344

>  <Name>

>  <RI>
3.49024e+07

>  <Rbt.Current_Directory>
/extra/banzai2/j5wagner/CELPP/2016_10_17_rdock_implementation/normal_run/tutorialVideo/tutorial_rdock_implementation/full_week_run/4-docking/5wrn/hiTanimoto_3hb8_docking

>  <Rbt.Executable>
rbdock ($Id: //depot/dev/client3/rdock/2013.1/src/exe/rbdock.cxx#4 $)

>  <Rbt.Library>
libRbt.so (2013.1, Build901 2013/11/27)

>  <Rbt.Parameter_File>
/home/j5wagner/env_00/source/rDock/rDock_2013.1_src//data/scripts/dock.prm

>  <Rbt.Receptor>
/extra/banzai2/j5wagner/CELPP/2016_10_17_rdock_implementation/normal_run/tutorialVideo/tutorial_rdock_implementation/full_week_run/4-docking/5wrn/hiTanimoto_3hb8_tech_prep/rDockGridGenInput.prm

>  <SCORE>
-32.1655

>  <SCORE.INTER>
-19.5333

>  <SCORE.INTER.CONST>
1

>  <SCORE.INTER.POLAR>
-1.95983

>  <SCORE.INTER.REPUL>
0.0146319

>  <SCORE.INTER.ROT>
4

>  <SCORE.INTER.VDW>
-22.343

>  <SCORE.INTER.norm>
-0.976663

>  <SCORE.INTRA>
-1.4936

>  <SCORE.INTRA.DIHEDRAL>
-3.0903

>  <SCORE.INTRA.DIHEDRAL.0>
8.98184

>  <SCORE.INTRA.POLAR>
0

>  <SCORE.INTRA.POLAR.0>
0

>  <SCORE.INTRA.REPUL>
0

>  <SCORE.INTRA.REPUL.0>
0

>  <SCORE.INTRA.VDW>
0.051553

>  <SCORE.INTRA.VDW.0>
-1.60828

>  <SCORE.INTRA.norm>
-0.0746798

>  <SCORE.RESTR>
0

>  <SCORE.RESTR.CAVITY>
0

>  <SCORE.RESTR.norm>
0

>  <SCORE.SYSTEM>
-11.1387

>  <SCORE.SYSTEM.CONST>
0

>  <SCORE.SYSTEM.DIHEDRAL>
2.03314

>  <SCORE.SYSTEM.POLAR>
-4.25137

>  <SCORE.SYSTEM.REPUL>
0.731396

>  <SCORE.SYSTEM.VDW>
-1.35757

>  <SCORE.SYSTEM.norm>
-0.556934

>  <SCORE.heavy>
20

>  <SCORE.norm>
-1.60828

$$$$

  rDOCK(R)          3D
libRbt.so/2013.1/901 2013/11/27
 25 26  0  0  0  0  0  0  0  0999 V2000
    2.5491    9.9425   14.0570 C   0  0  0  0  0  0
    1.3107   10.1568   14.6913 O   0  0  0  0  0  0
    2.9594   11.0958   13.1840 C   0  0  0  0  0  0
    4.4852   11.0994   13.3018 C   0  0  0  0  0  0
    5.1070   10.6687   12.0281 N   0  0  0  0  0  0
    6.0812    9.7025   12.0310 C   0  0  0  0  0  0
    6.6944    9.2988   10.8481 C   0  0  0  0  0  0
    6.2923    9.8894    9.6519 C   0  0  0  0  0  0
    6.8350    9.5539    8.5249 N   0  0  0  0  0  0
    5.3119   10.8236    9.6694 N   0  0  0  0  0  0
    4.7105   11.2126   10.8245 C   0  0  0  0  0  0
    3.6872   12.1606   10.7357 O   0  0  0  0  0  0
    4.8771   10.2587   14.3737 O   0  0  0  0  0  0
    3.7101    9.8378   15.0405 C   0  0  0  0  0  0
    3.9025    8.4080   15.5657 C   0  0  0  0  0  0
    4.1885    7.5212   14.5027 O   0  0  0  0  0  0
    4.7616    6.0328   15.1150 P   0  0  0  0  0  0
    5.0175    5.0731   13.9739 O   0  0  0  0  0  0
    6.1834    6.2547   16.0096 O   0  0  0  0  0  0
    3.5796    5.3724   16.1284 O   0  0  0  0  0  0
    0.5990   10.1462   13.9991 H   0  0  0  0  0  0
    7.5926    8.8365    8.4587 H   0  0  0  0  0  0
    3.4918   12.7091    9.9099 H   0  0  0  0  0  0
    6.6657    5.3916   15.9510 H   0  0  0  0  0  0
    3.4850    6.0290   16.8638 H   0  0  0  0  0  0
  1  2  1  0  0  0
  1  3  1  0  0  0
  3  4  1  0  0  0
  4  5  1  0  0  0
  5  6  1  0  0  0
  6  7  2  0  0  0
  7  8  1  0  0  0
  8  9  2  0  0  0
  8 10  1  0  0  0
 10 11  2  0  0  0
 11 12  1  0  0  0
  4 13  1  0  0  0
 13 14  1  0  0  0
 14 15  1  0  0  0
 15 16  1  0  0  0
 16 17  1  0  0  0
 17 18  2  0  0  0
 17 19  1  0  0  0
 17 20  1  0  0  0
 14  1  1  0  0  0
 11  5  1  0  0  0
  2 21  1  0  0  0
  9 22  1  0  0  0
 12 23  1  0  0  0
 19 24  1  0  0  0
 20 25  1  0  0  0
M  END
>  <CHROM.0>
166.27649774,-178.61235363,63.63511879,65.27200756,-170.22719421,-56.25899115
-169.27399190,179.53392956,-177.75785974,60.04307873,15.31270203,171.55561028

>  <CHROM.1>
68.41684565,-130.88250199,167.56801947,60.84587970,166.57893399,177.96555228
-153.62333672,-62.40501811,4.58092814,8.95288274,13.22540401,1.74787229,-0.79105363
2.42115423

>  <Name>

>  <RI>
3.49024e+07

>  <Rbt.Current_Directory>
/extra/banzai2/j5wagner/CELPP/2016_10_17_rdock_implementation/normal_run/tutorialVideo/tutorial_rdock_implementation/full_week_run/4-docking/5wrn/hiTanimoto_3hb8_docking

>  <Rbt.Executable>
rbdock ($Id: //depot/dev/client3/rdock/2013.1/src/exe/rbdock.cxx#4 $)

>  <Rbt.Library>
libRbt.so (2013.1, Build901 2013/11/27)

>  <Rbt.Parameter_File>
/home/j5wagner/env_00/source/rDock/rDock_2013.1_src//data/scripts/dock.prm

>  <Rbt.Receptor>
/extra/banzai2/j5wagner/CELPP/2016_10_17_rdock_implementation/normal_run/tutorialVideo/tutorial_rdock_implementation/full_week_run/4-docking/5wrn/hiTanimoto_3hb8_tech_prep/rDockGridGenInput.prm

>  <SCORE>
-22.2538

>  <SCORE.INTER>
-17.6928

>  <SCORE.INTER.CONST>
1

>  <SCORE.INTER.POLAR>
-2.00709

>  <SCORE.INTER.REPUL>
0.0820256

>  <SCORE.INTER.ROT>
4

>  <SCORE.INTER.VDW>
-20.6788

>  <SCORE.INTER.norm>
-0.88464

>  <SCORE.INTRA>
-0.837035

>  <SCORE.INTRA.DIHEDRAL>
-4.0997

>  <SCORE.INTRA.DIHEDRAL.0>
8.98184

>  <SCORE.INTRA.POLAR>
0

>  <SCORE.INTRA.POLAR.0>
0

>  <SCORE.INTRA.REPUL>
0

>  <SCORE.INTRA.REPUL.0>
0

>  <SCORE.INTRA.VDW>
1.21282

>  <SCORE.INTRA.VDW.0>
-1.60828

>  <SCORE.INTRA.norm>
-0.0418517

>  <SCORE.RESTR>
0.844017

>  <SCORE.RESTR.CAVITY>
0.844017

>  <SCORE.RESTR.norm>
0.0422008

>  <SCORE.SYSTEM>
-4.56797

>  <SCORE.SYSTEM.CONST>
0

>  <SCORE.SYSTEM.DIHEDRAL>
1.37945

>  <SCORE.SYSTEM.POLAR>
-3.05137

>  <SCORE.SYSTEM.REPUL>
0.856927

>  <SCORE.SYSTEM.VDW>
0.832336

>  <SCORE.SYSTEM.norm>
-0.228399

>  <SCORE.heavy>
20

>  <SCORE.norm>
-1.11269

$$$$

  rDOCK(R)          3D
libRbt.so/2013.1/901 2013/11/27
 25 26  0  0  0  0  0  0  0  0999 V2000
    1.9697   10.5970   13.8765 C   0  0  0  0  0  0
    0.9633   11.3657   14.4915 O   0  0  0  0  0  0
    3.3074   11.2833   13.8829 C   0  0  0  0  0  0
    4.2968   10.1221   14.0038 C   0  0  0  0  0  0
    5.0457    9.9420   12.7385 N   0  0  0  0  0  0
    5.1740   10.9887   11.8607 C   0  0  0  0  0  0
    5.8545   10.8352   10.6559 C   0  0  0  0  0  0
    6.4155    9.5948   10.3590 C   0  0  0  0  0  0
    7.0534    9.3977    9.2493 N   0  0  0  0  0  0
    6.2977    8.5823   11.2507 N   0  0  0  0  0  0
    5.6376    8.7355   12.4290 C   0  0  0  0  0  0
    5.5972    7.6407   13.2970 O   0  0  0  0  0  0
    3.5967    8.9414   14.3577 O   0  0  0  0  0  0
    2.2582    9.2949   14.6165 C   0  0  0  0  0  0
    1.3285    8.1553   14.1759 C   0  0  0  0  0  0
   -0.0204    8.5774   14.1945 O   0  0  0  0  0  0
   -1.0528    7.2682   13.8223 P   0  0  0  0  0  0
   -1.0526    6.2743   14.9629 O   0  0  0  0  0  0
   -2.6323    7.8080   13.5304 O   0  0  0  0  0  0
   -0.4750    6.5010   12.4303 O   0  0  0  0  0  0
    1.2432   11.5584   15.4244 H   0  0  0  0  0  0
    7.1741   10.1476    8.5309 H   0  0  0  0  0  0
    4.9671    7.5627   14.0832 H   0  0  0  0  0  0
   -2.8711    8.3550   14.3209 H   0  0  0  0  0  0
   -1.0467    5.6984   12.3310 H   0  0  0  0  0  0
  1  2  1  0  0  0
  1  3  1  0  0  0
  3  4  1  0  0  0
  4  5  1  0  0  0
  5  6  1  0  0  0
  6  7  2  0  0  0
  7  8  1  0  0  0
  8  9  2  0  0  0
  8 10  1  0  0  0
 10 11  2  0  0  0
 11 12  1  0  0  0
  4 13  1  0  0  0
 13 14  1  0  0  0
 14 15  1  0  0  0
 15 16  1  0  0  0
 16 17  1  0  0  0
 17 18  2  0  0  0
 17 19  1  0  0  0
 17 20  1  0  0  0
 14  1  1  0  0  0
 11  5  1  0  0  0
  2 21  1  0  0  0
  9 22  1  0  0  0
 12 23  1  0  0  0
 19 24  1  0  0  0
 20 25  1  0  0  0
M  END
>  <CHROM.0>
165.09872411,63.74280387,-55.49554827,-177.57965033,44.60403318,-175.31717000
-147.85571323,-176.66024109,-177.65629097,62.60058129,11.67953252,59.13549967

>  <CHROM.1>
-57.97549904,23.11992928,15.51123644,-49.43832079,-175.54779258,69.90424946
-52.77886998,173.57438785,2.58654916,8.92346269,13.11445582,3.08012006,-0.44276755
-2.60130214

>  <Name>

>  <RI>
3.49024e+07

>  <Rbt.Current_Directory>
/extra/banzai2/j5wagner/CELPP/2016_10_17_rdock_implementation/normal_run/tutorialVideo/tutorial_rdock_implementation/full_week_run/4-docking/5wrn/hiTanimoto_3hb8_docking

>  <Rbt.Executable>
rbdock ($Id: //depot/dev/client3/rdock/2013.1/src/exe/rbdock.cxx#4 $)

>  <Rbt.Library>
libRbt.so (2013.1, Build901 2013/11/27)

>  <Rbt.Parameter_File>
/home/j5wagner/env_00/source/rDock/rDock_2013.1_src//data/scripts/dock.prm

>  <Rbt.Receptor>
/extra/banzai2/j5wagner/CELPP/2016_10_17_rdock_implementation/normal_run/tutorialVideo/tutorial_rdock_implementation/full_week_run/4-docking/5wrn/hiTanimoto_3hb8_tech_prep/rDockGridGenInput.prm

>  <SCORE>
-26.7897

>  <SCORE.INTER>
-16.9988

>  <SCORE.INTER.CONST>
1

>  <SCORE.INTER.POLAR>
-2.60912

>  <SCORE.INTER.REPUL>
0.0058499

>  <SCORE.INTER.ROT>
4

>  <SCORE.INTER.VDW>
-17.5571

>  <SCORE.INTER.norm>
-0.849941

>  <SCORE.INTRA>
-1.52018

>  <SCORE.INTRA.DIHEDRAL>
-5.28218

>  <SCORE.INTRA.DIHEDRAL.0>
8.98184

>  <SCORE.INTRA.POLAR>
-0.386613

>  <SCORE.INTRA.POLAR.0>
0

>  <SCORE.INTRA.REPUL>
0

>  <SCORE.INTRA.REPUL.0>
0

>  <SCORE.INTRA.VDW>
2.43539

>  <SCORE.INTRA.VDW.0>
-1.60828

>  <SCORE.INTRA.norm>
-0.0760092

>  <SCORE.RESTR>
0.770736

>  <SCORE.RESTR.CAVITY>
0.770736

>  <SCORE.RESTR.norm>
0.0385368

>  <SCORE.SYSTEM>
-9.04141

>  <SCORE.SYSTEM.CONST>
0

>  <SCORE.SYSTEM.DIHEDRAL>
8.21135

>  <SCORE.SYSTEM.POLAR>
-4.25137

>  <SCORE.SYSTEM.REPUL>
0.812277

>  <SCORE.SYSTEM.VDW>
-2.75379

>  <SCORE.SYSTEM.norm>
-0.45207

>  <SCORE.heavy>
20

>  <SCORE.norm>
-1.33948

$$$$

  rDOCK(R)          3D
libRbt.so/2013.1/901 2013/11/27
 25 26  0  0  0  0  0  0  0  0999 V2000
    4.3049    8.0977   13.3651 C   0  0  0  0  0  0
    5.6318    7.6412   13.2506 O   0  0  0  0  0  0
    3.4504    7.1884   14.2038 C   0  0  0  0  0  0
    2.4730    8.1518   14.8810 C   0  0  0  0  0  0
    1.1067    7.9760   14.3362 N   0  0  0  0  0  0
    0.7442    8.6072   13.1731 C   0  0  0  0  0  0
   -0.5413    8.4737   12.6553 C   0  0  0  0  0  0
   -1.4566    7.6748   13.3375 C   0  0  0  0  0  0
   -2.6665    7.5223   12.9014 N   0  0  0  0  0  0
   -1.0700    7.0416   14.4706 N   0  0  0  0  0  0
    0.1870    7.1687   14.9717 C   0  0  0  0  0  0
    0.4994    6.4505   16.1294 O   0  0  0  0  0  0
    2.9270    9.4833   14.7071 O   0  0  0  0  0  0
    4.1963    9.4301   14.0992 C   0  0  0  0  0  0
    4.3687   10.6305   13.1576 C   0  0  0  0  0  0
    5.3129   10.3392   12.1467 O   0  0  0  0  0  0
    4.8641   11.0998   10.6843 P   0  0  0  0  0  0
    3.5462   10.5387   10.1976 O   0  0  0  0  0  0
    4.7342   12.7766   10.8904 O   0  0  0  0  0  0
    6.0529   10.7857    9.5231 O   0  0  0  0  0  0
    6.1594    8.3315   12.7701 H   0  0  0  0  0  0
   -3.0117    7.9870   12.0309 H   0  0  0  0  0  0
    1.3903    6.4983   16.6038 H   0  0  0  0  0  0
    5.5973   13.0583   11.2863 H   0  0  0  0  0  0
    5.7098   11.2046    8.6938 H   0  0  0  0  0  0
  1  2  1  0  0  0
  1  3  1  0  0  0
  3  4  1  0  0  0
  4  5  1  0  0  0
  5  6  1  0  0  0
  6  7  2  0  0  0
  7  8  1  0  0  0
  8  9  2  0  0  0
  8 10  1  0  0  0
 10 11  2  0  0  0
 11 12  1  0  0  0
  4 13  1  0  0  0
 13 14  1  0  0  0
 14 15  1  0  0  0
 15 16  1  0  0  0
 16 17  1  0  0  0
 17 18  2  0  0  0
 17 19  1  0  0  0
 17 20  1  0  0  0
 14  1  1  0  0  0
 11  5  1  0  0  0
  2 21  1  0  0  0
  9 22  1  0  0  0
 12 23  1  0  0  0
 19 24  1  0  0  0
 20 25  1  0  0  0
M  END
>  <CHROM.0>
161.97396605,-57.56564709,-55.07010584,-62.63225440,49.71462430,61.44733011
-149.60734366,175.25819379,-177.49785157,63.11912626,-176.88618237,-178.41294619

>  <CHROM.1>
-174.05885678,-83.41698442,2.83285504,-35.39165892,145.28120884,-63.62220070
53.32964277,176.78497111,2.69855195,9.04979090,12.94867361,-0.70803788,0.14814951
2.22061766

>  <Name>

>  <RI>
3.49024e+07

>  <Rbt.Current_Directory>
/extra/banzai2/j5wagner/CELPP/2016_10_17_rdock_implementation/normal_run/tutorialVideo/tutorial_rdock_implementation/full_week_run/4-docking/5wrn/hiTanimoto_3hb8_docking

>  <Rbt.Executable>
rbdock ($Id: //depot/dev/client3/rdock/2013.1/src/exe/rbdock.cxx#4 $)

>  <Rbt.Library>
libRbt.so (2013.1, Build901 2013/11/27)

>  <Rbt.Parameter_File>
/home/j5wagner/env_00/source/rDock/rDock_2013.1_src//data/scripts/dock.prm

>  <Rbt.Receptor>
/extra/banzai2/j5wagner/CELPP/2016_10_17_rdock_implementation/normal_run/tutorialVideo/tutorial_rdock_implementation/full_week_run/4-docking/5wrn/hiTanimoto_3hb8_tech_prep/rDockGridGenInput.prm

>  <SCORE>
-27.7957

>  <SCORE.INTER>
-16.287

>  <SCORE.INTER.CONST>
1

>  <SCORE.INTER.POLAR>
-2.90354

>  <SCORE.INTER.REPUL>
0

>  <SCORE.INTER.ROT>
4

>  <SCORE.INTER.VDW>
-15.8149

>  <SCORE.INTER.norm>
-0.814348

>  <SCORE.INTRA>
-0.948994

>  <SCORE.INTRA.DIHEDRAL>
0.175758

>  <SCORE.INTRA.DIHEDRAL.0>
8.98184

>  <SCORE.INTRA.POLAR>
-0.312562

>  <SCORE.INTRA.POLAR.0>
0

>  <SCORE.INTRA.REPUL>
0

>  <SCORE.INTRA.REPUL.0>
0

>  <SCORE.INTRA.VDW>
0.0258396

>  <SCORE.INTRA.VDW.0>
-1.60828

>  <SCORE.INTRA.norm>
-0.0474497

>  <SCORE.RESTR>
0.0718799

>  <SCORE.RESTR.CAVITY>
0.0718799

>  <SCORE.RESTR.norm>
0.003594

>  <SCORE.SYSTEM>
-10.6316

>  <SCORE.SYSTEM.CONST>
0

>  <SCORE.SYSTEM.DIHEDRAL>
4.85769

>  <SCORE.SYSTEM.POLAR>
-4.25137

>  <SCORE.SYSTEM.REPUL>
0.768666

>  <SCORE.SYSTEM.VDW>
-2.44914

>  <SCORE.SYSTEM.norm>
-0.531582

>  <SCORE.heavy>
20

>  <SCORE.norm>
-1.38979

$$$$

  rDOCK(R)          3D
libRbt.so/2013.1/901 2013/11/27
 25 26  0  0  0  0  0  0  0  0999 V2000
    4.1463   11.3356   14.5303 C   0  0  0  0  0  0
    3.9811   12.6819   14.9074 O   0  0  0  0  0  0
    3.7724   10.3774   15.6269 C   0  0  0  0  0  0
    3.2114    9.1744   14.8652 C   0  0  0  0  0  0
    4.1336    8.0193   14.9638 N   0  0  0  0  0  0
    4.9789    7.9044   16.0385 C   0  0  0  0  0  0
    5.8692    6.8388   16.1400 C   0  0  0  0  0  0
    5.8803    5.8792   15.1299 C   0  0  0  0  0  0
    6.6931    4.8719   15.1736 N   0  0  0  0  0  0
    5.0205    5.9994   14.0904 N   0  0  0  0  0  0
    4.1482    7.0374   13.9956 C   0  0  0  0  0  0
    3.2793    7.0566   12.9010 O   0  0  0  0  0  0
    2.9856    9.5361   13.5133 O   0  0  0  0  0  0
    3.2201   10.9196   13.3922 C   0  0  0  0  0  0
    3.8198   11.2228   12.0117 C   0  0  0  0  0  0
    4.8431   10.2990   11.6993 O   0  0  0  0  0  0
    5.3856   10.5400   10.0974 P   0  0  0  0  0  0
    6.1106   11.8639    9.9949 O   0  0  0  0  0  0
    6.4128    9.2829    9.6117 O   0  0  0  0  0  0
    4.0430   10.5724    9.0695 O   0  0  0  0  0  0
    3.0278   12.8251   15.1452 H   0  0  0  0  0  0
    7.3730    4.7331   15.9555 H   0  0  0  0  0  0
    3.4703    6.6062   12.0168 H   0  0  0  0  0  0
    7.1161    9.2374   10.3075 H   0  0  0  0  0  0
    3.6077   11.4428    9.2534 H   0  0  0  0  0  0
  1  2  1  0  0  0
  1  3  1  0  0  0
  3  4  1  0  0  0
  4  5  1  0  0  0
  5  6  1  0  0  0
  6  7  2  0  0  0
  7  8  1  0  0  0
  8  9  2  0  0  0
  8 10  1  0  0  0
 10 11  2  0  0  0
 11 12  1  0  0  0
  4 13  1  0  0  0
 13 14  1  0  0  0
 14 15  1  0  0  0
 15 16  1  0  0  0
 16 17  1  0  0  0
 17 18  2  0  0  0
 17 19  1  0  0  0
 17 20  1  0  0  0
 14  1  1  0  0  0
 11  5  1  0  0  0
  2 21  1  0  0  0
  9 22  1  0  0  0
 12 23  1  0  0  0
 19 24  1  0  0  0
 20 25  1  0  0  0
M  END
>  <CHROM.0>
170.45260875,-64.67145952,61.65569194,-176.08473805,-74.06918202,-176.90862428
-166.16346569,-174.02324139,-177.81800627,-178.67829533,22.04635170,-173.61509039

>  <CHROM.1>
-59.65012439,26.35964632,154.96566229,74.57286859,173.90452474,68.26352253
-53.69795426,72.81837734,4.64170160,9.23226975,13.07293224,1.61040606,1.12572848
-0.88622246

>  <Name>

>  <RI>
3.49024e+07

>  <Rbt.Current_Directory>
/extra/banzai2/j5wagner/CELPP/2016_10_17_rdock_implementation/normal_run/tutorialVideo/tutorial_rdock_implementation/full_week_run/4-docking/5wrn/hiTanimoto_3hb8_docking

>  <Rbt.Executable>
rbdock ($Id: //depot/dev/client3/rdock/2013.1/src/exe/rbdock.cxx#4 $)

>  <Rbt.Library>
libRbt.so (2013.1, Build901 2013/11/27)

>  <Rbt.Parameter_File>
/home/j5wagner/env_00/source/rDock/rDock_2013.1_src//data/scripts/dock.prm

>  <Rbt.Receptor>
/extra/banzai2/j5wagner/CELPP/2016_10_17_rdock_implementation/normal_run/tutorialVideo/tutorial_rdock_implementation/full_week_run/4-docking/5wrn/hiTanimoto_3hb8_tech_prep/rDockGridGenInput.prm

>  <SCORE>
-20.6619

>  <SCORE.INTER>
-15.4205

>  <SCORE.INTER.CONST>
1

>  <SCORE.INTER.POLAR>
-1.8372

>  <SCORE.INTER.REPUL>
0.00327573

>  <SCORE.INTER.ROT>
4

>  <SCORE.INTER.VDW>
-18.5904

>  <SCORE.INTER.norm>
-0.771024

>  <SCORE.INTRA>
0.0514826

>  <SCORE.INTRA.DIHEDRAL>
-4.18902

>  <SCORE.INTRA.DIHEDRAL.0>
8.98184

>  <SCORE.INTRA.POLAR>
0

>  <SCORE.INTRA.POLAR.0>
0

>  <SCORE.INTRA.REPUL>
0

>  <SCORE.INTRA.REPUL.0>
0

>  <SCORE.INTRA.VDW>
2.14599

>  <SCORE.INTRA.VDW.0>
-1.60828

>  <SCORE.INTRA.norm>
0.00257413

>  <SCORE.RESTR>
0.393849

>  <SCORE.RESTR.CAVITY>
0.393849

>  <SCORE.RESTR.norm>
0.0196924

>  <SCORE.SYSTEM>
-5.68679

>  <SCORE.SYSTEM.CONST>
0

>  <SCORE.SYSTEM.DIHEDRAL>
5.97751

>  <SCORE.SYSTEM.POLAR>
-3.05137

>  <SCORE.SYSTEM.REPUL>
0.339672

>  <SCORE.SYSTEM.VDW>
0.000768506

>  <SCORE.SYSTEM.norm>
-0.284339

>  <SCORE.heavy>
20

>  <SCORE.norm>
-1.0331

$$$$

  rDOCK(R)          3D
libRbt.so/2013.1/901 2013/11/27
 25 26  0  0  0  0  0  0  0  0999 V2000
    3.0733    9.7697   13.9810 C   0  0  0  0  0  0
    1.9199   10.0734   13.2330 O   0  0  0  0  0  0
    2.8557    8.6374   14.9460 C   0  0  0  0  0  0
    4.2196    7.9444   14.9868 C   0  0  0  0  0  0
    4.8770    8.1651   16.2958 N   0  0  0  0  0  0
    4.6688    9.3356   16.9808 C   0  0  0  0  0  0
    5.2942    9.5730   18.2019 C   0  0  0  0  0  0
    6.1328    8.5909   18.7248 C   0  0  0  0  0  0
    6.7430    8.7645   19.8539 N   0  0  0  0  0  0
    6.3049    7.4331   18.0436 N   0  0  0  0  0  0
    5.6893    7.2008   16.8543 C   0  0  0  0  0  0
    5.9051    5.9624   16.2431 O   0  0  0  0  0  0
    5.0236    8.4233   13.9221 O   0  0  0  0  0  0
    4.2228    9.2583   13.1188 C   0  0  0  0  0  0
    5.0766   10.3996   12.5484 C   0  0  0  0  0  0
    6.1419    9.8859   11.7742 O   0  0  0  0  0  0
    5.9503   10.3344   10.1369 P   0  0  0  0  0  0
    6.6869   11.6285    9.8700 O   0  0  0  0  0  0
    6.5289    9.1203    9.1061 O   0  0  0  0  0  0
    4.3042   10.5699    9.8286 O   0  0  0  0  0  0
    1.2011   10.3431   13.8627 H   0  0  0  0  0  0
    6.6404    9.6384   20.4184 H   0  0  0  0  0  0
    5.5578    5.7132   15.3275 H   0  0  0  0  0  0
    7.4460    8.9234    9.4243 H   0  0  0  0  0  0
    4.2506   10.7123    8.8499 H   0  0  0  0  0  0
  1  2  1  0  0  0
  1  3  1  0  0  0
  3  4  1  0  0  0
  4  5  1  0  0  0
  5  6  1  0  0  0
  6  7  2  0  0  0
  7  8  1  0  0  0
  8  9  2  0  0  0
  8 10  1  0  0  0
 10 11  2  0  0  0
 11 12  1  0  0  0
  4 13  1  0  0  0
 13 14  1  0  0  0
 14 15  1  0  0  0
 15 16  1  0  0  0
 16 17  1  0  0  0
 17 18  2  0  0  0
 17 19  1  0  0  0
 17 20  1  0  0  0
 14  1  1  0  0  0
 11  5  1  0  0  0
  2 21  1  0  0  0
  9 22  1  0  0  0
 12 23  1  0  0  0
 19 24  1  0  0  0
 20 25  1  0  0  0
M  END
>  <CHROM.0>
169.62130612,57.68343040,-54.97507672,-177.44223846,178.66400334,62.48282501
-143.69868554,-173.73852628,80.99889249,62.73195511,161.16452504,55.12853124

>  <CHROM.1>
60.72657380,-32.37339926,5.54708504,179.06924707,114.71785691,92.31309826
-51.77027008,-173.07036570,5.13575964,9.15244809,14.01047164,1.57852667,0.18417226
-1.29284687

>  <Name>

>  <RI>
3.49024e+07

>  <Rbt.Current_Directory>
/extra/banzai2/j5wagner/CELPP/2016_10_17_rdock_implementation/normal_run/tutorialVideo/tutorial_rdock_implementation/full_week_run/4-docking/5wrn/hiTanimoto_3hb8_docking

>  <Rbt.Executable>
rbdock ($Id: //depot/dev/client3/rdock/2013.1/src/exe/rbdock.cxx#4 $)

>  <Rbt.Library>
libRbt.so (2013.1, Build901 2013/11/27)

>  <Rbt.Parameter_File>
/home/j5wagner/env_00/source/rDock/rDock_2013.1_src//data/scripts/dock.prm

>  <Rbt.Receptor>
/extra/banzai2/j5wagner/CELPP/2016_10_17_rdock_implementation/normal_run/tutorialVideo/tutorial_rdock_implementation/full_week_run/4-docking/5wrn/hiTanimoto_3hb8_tech_prep/rDockGridGenInput.prm

>  <SCORE>
-27.3616

>  <SCORE.INTER>
-22.0891

>  <SCORE.INTER.CONST>
1

>  <SCORE.INTER.POLAR>
-2.47457

>  <SCORE.INTER.REPUL>
0.00522843

>  <SCORE.INTER.ROT>
4

>  <SCORE.INTER.VDW>
-23.1017

>  <SCORE.INTER.norm>
-1.10445

>  <SCORE.INTRA>
2.94826

>  <SCORE.INTRA.DIHEDRAL>
2.15241

>  <SCORE.INTRA.DIHEDRAL.0>
8.98184

>  <SCORE.INTRA.POLAR>
0

>  <SCORE.INTRA.POLAR.0>
0

>  <SCORE.INTRA.REPUL>
0.0544134

>  <SCORE.INTRA.REPUL.0>
0

>  <SCORE.INTRA.VDW>
1.59999

>  <SCORE.INTRA.VDW.0>
-1.60828

>  <SCORE.INTRA.norm>
0.147413

>  <SCORE.RESTR>
0

>  <SCORE.RESTR.CAVITY>
0

>  <SCORE.RESTR.norm>
0

>  <SCORE.SYSTEM>
-8.22081

>  <SCORE.SYSTEM.CONST>
0

>  <SCORE.SYSTEM.DIHEDRAL>
7.88919

>  <SCORE.SYSTEM.POLAR>
-4.20214

>  <SCORE.SYSTEM.REPUL>
0.757282

>  <SCORE.SYSTEM.VDW>
-1.66452

>  <SCORE.SYSTEM.norm>
-0.41104

>  <SCORE.heavy>
20

>  <SCORE.norm>
-1.36808

$$$$

  rDOCK(R)          3D
libRbt.so/2013.1/901 2013/11/27
 25 26  0  0  0  0  0  0  0  0999 V2000
    4.6917    8.3383   13.7404 C   0  0  0  0  0  0
    6.0603    8.0087   13.7591 O   0  0  0  0  0  0
    3.8884    7.5303   14.7215 C   0  0  0  0  0  0
    2.7909    8.5023   15.1607 C   0  0  0  0  0  0
    1.4763    8.0805   14.6239 N   0  0  0  0  0  0
    0.9330    6.8787   15.0022 C   0  0  0  0  0  0
   -0.2908    6.4527   14.4928 C   0  0  0  0  0  0
   -0.9636    7.2777   13.5939 C   0  0  0  0  0  0
   -2.1019    6.9256   13.0864 N   0  0  0  0  0  0
   -0.4206    8.4706   13.2531 N   0  0  0  0  0  0
    0.7716    8.8873   13.7555 C   0  0  0  0  0  0
    1.2340   10.1480   13.3676 O   0  0  0  0  0  0
    3.1229    9.8124   14.7331 O   0  0  0  0  0  0
    4.4197    9.7715   14.1853 C   0  0  0  0  0  0
    4.5220   10.7717   13.0249 C   0  0  0  0  0  0
    3.7741   10.3225   11.9127 O   0  0  0  0  0  0
    4.2502   11.1634   10.5039 P   0  0  0  0  0  0
    4.0460   12.6496   10.6998 O   0  0  0  0  0  0
    5.8736   10.8501   10.1328 O   0  0  0  0  0  0
    3.2882   10.6461    9.2127 O   0  0  0  0  0  0
    6.4074    8.1669   14.6758 H   0  0  0  0  0  0
   -2.5633    6.0171   13.3202 H   0  0  0  0  0  0
    2.2048   10.4278   13.3889 H   0  0  0  0  0  0
    6.3971   11.3671   10.7959 H   0  0  0  0  0  0
    3.6998   11.0596    8.4124 H   0  0  0  0  0  0
  1  2  1  0  0  0
  1  3  1  0  0  0
  3  4  1  0  0  0
  4  5  1  0  0  0
  5  6  1  0  0  0
  6  7  2  0  0  0
  7  8  1  0  0  0
  8  9  2  0  0  0
  8 10  1  0  0  0
 10 11  2  0  0  0
 11 12  1  0  0  0
  4 13  1  0  0  0
 13 14  1  0  0  0
 14 15  1  0  0  0
 15 16  1  0  0  0
 16 17  1  0  0  0
 17 18  2  0  0  0
 17 19  1  0  0  0
 17 20  1  0  0  0
 14  1  1  0  0  0
 11  5  1  0  0  0
  2 21  1  0  0  0
  9 22  1  0  0  0
 12 23  1  0  0  0
 19 24  1  0  0  0
 20 25  1  0  0  0
M  END
>  <CHROM.0>
167.43662334,176.72829646,-57.97242944,61.41984626,34.03427666,-177.58187085
-151.28643538,-167.29699202,-61.57748628,171.33018316,5.71299648,53.07085671

>  <CHROM.1>
-58.99702941,62.88150167,23.48948843,49.02536973,-163.19224293,-58.63476583
-74.43949101,-171.61104018,2.76893736,9.28346013,12.90311179,-0.77916516
0.21534030,2.18857692

>  <Name>

>  <RI>
3.49024e+07

>  <Rbt.Current_Directory>
/extra/banzai2/j5wagner/CELPP/2016_10_17_rdock_implementation/normal_run/tutorialVideo/tutorial_rdock_implementation/full_week_run/4-docking/5wrn/hiTanimoto_3hb8_docking

>  <Rbt.Executable>
rbdock ($Id: //depot/dev/client3/rdock/2013.1/src/exe/rbdock.cxx#4 $)

>  <Rbt.Library>
libRbt.so (2013.1, Build901 2013/11/27)

>  <Rbt.Parameter_File>
/home/j5wagner/env_00/source/rDock/rDock_2013.1_src//data/scripts/dock.prm

>  <Rbt.Receptor>
/extra/banzai2/j5wagner/CELPP/2016_10_17_rdock_implementation/normal_run/tutorialVideo/tutorial_rdock_implementation/full_week_run/4-docking/5wrn/hiTanimoto_3hb8_tech_prep/rDockGridGenInput.prm

>  <SCORE>
-32.5261

>  <SCORE.INTER>
-17.9557

>  <SCORE.INTER.CONST>
1

>  <SCORE.INTER.POLAR>
-3.31547

>  <SCORE.INTER.REPUL>
0.00440051

>  <SCORE.INTER.ROT>
4

>  <SCORE.INTER.VDW>
-16.1051

>  <SCORE.INTER.norm>
-0.897784

>  <SCORE.INTRA>
-2.23836

>  <SCORE.INTRA.DIHEDRAL>
-3.61367

>  <SCORE.INTRA.DIHEDRAL.0>
8.98184

>  <SCORE.INTRA.POLAR>
-0.933128

>  <SCORE.INTRA.POLAR.0>
0

>  <SCORE.INTRA.REPUL>
0

>  <SCORE.INTRA.REPUL.0>
0

>  <SCORE.INTRA.VDW>
2.74111

>  <SCORE.INTRA.VDW.0>
-1.60828

>  <SCORE.INTRA.norm>
-0.111918

>  <SCORE.RESTR>
0.0788191

>  <SCORE.RESTR.CAVITY>
0.0788191

>  <SCORE.RESTR.norm>
0.00394095

>  <SCORE.SYSTEM>
-12.4108

>  <SCORE.SYSTEM.CONST>
0

>  <SCORE.SYSTEM.DIHEDRAL>
6.79369

>  <SCORE.SYSTEM.POLAR>
-4.24905

>  <SCORE.SYSTEM.REPUL>
0.115041

>  <SCORE.SYSTEM.VDW>
-1.93611

>  <SCORE.SYSTEM.norm>
-0.620541

>  <SCORE.heavy>
20

>  <SCORE.norm>
-1.6263

$$$$

  rDOCK(R)          3D
libRbt.so/2013.1/901 2013/11/27
 25 26  0  0  0  0  0  0  0  0999 V2000
    4.1834    5.5940   14.4812 C   0  0  0  0  0  0
    3.4266    4.4917   14.9218 O   0  0  0  0  0  0
    3.4473    6.8968   14.6271 C   0  0  0  0  0  0
    4.5636    7.8981   14.9324 C   0  0  0  0  0  0
    4.7717    8.8121   13.7854 N   0  0  0  0  0  0
    5.6975    8.5045   12.8206 C   0  0  0  0  0  0
    5.9248    9.3600   11.7460 C   0  0  0  0  0  0
    5.1841   10.5371   11.6610 C   0  0  0  0  0  0
    5.3613   11.3696   10.6849 N   0  0  0  0  0  0
    4.2584   10.8090   12.6114 N   0  0  0  0  0  0
    4.0338    9.9700   13.6569 C   0  0  0  0  0  0
    3.0353   10.3230   14.5690 O   0  0  0  0  0  0
    5.7530    7.1954   15.2504 O   0  0  0  0  0  0
    5.4391    5.8240   15.3157 C   0  0  0  0  0  0
    6.6318    4.9969   14.8150 C   0  0  0  0  0  0
    7.5930    4.8382   15.8392 O   0  0  0  0  0  0
    8.9672    4.0216   15.2364 P   0  0  0  0  0  0
    9.9218    5.0155   14.6121 O   0  0  0  0  0  0
    9.7527    3.1676   16.4713 O   0  0  0  0  0  0
    8.4686    2.9248   14.0496 O   0  0  0  0  0  0
    3.9555    3.6663   14.7641 H   0  0  0  0  0  0
    6.0608   11.2035    9.9260 H   0  0  0  0  0  0
    2.8415    9.8173   15.4222 H   0  0  0  0  0  0
    9.2829    2.2973   16.5259 H   0  0  0  0  0  0
    9.2721    2.3775   13.8609 H   0  0  0  0  0  0
  1  2  1  0  0  0
  1  3  1  0  0  0
  3  4  1  0  0  0
  4  5  1  0  0  0
  5  6  1  0  0  0
  6  7  2  0  0  0
  7  8  1  0  0  0
  8  9  2  0  0  0
  8 10  1  0  0  0
 10 11  2  0  0  0
 11 12  1  0  0  0
  4 13  1  0  0  0
 13 14  1  0  0  0
 14 15  1  0  0  0
 15 16  1  0  0  0
 16 17  1  0  0  0
 17 18  2  0  0  0
 17 19  1  0  0  0
 17 20  1  0  0  0
 14  1  1  0  0  0
 11  5  1  0  0  0
  2 21  1  0  0  0
  9 22  1  0  0  0
 12 23  1  0  0  0
 19 24  1  0  0  0
 20 25  1  0  0  0
M  END
>  <CHROM.0>
166.73540772,-176.12236063,-54.18911557,-59.82776314,49.88472934,-57.97387887
-141.52754666,178.30360842,-59.09037728,59.19892398,4.80736919,-151.75249139

>  <CHROM.1>
177.78005920,-92.05887334,6.12844407,-158.51455875,-175.63407397,86.06406544
85.23765850,-170.15691719,6.07508515,6.81219036,14.23492043,0.98538503,-0.27407708
2.58090830

>  <Name>

>  <RI>
3.49024e+07

>  <Rbt.Current_Directory>
/extra/banzai2/j5wagner/CELPP/2016_10_17_rdock_implementation/normal_run/tutorialVideo/tutorial_rdock_implementation/full_week_run/4-docking/5wrn/hiTanimoto_3hb8_docking

>  <Rbt.Executable>
rbdock ($Id: //depot/dev/client3/rdock/2013.1/src/exe/rbdock.cxx#4 $)

>  <Rbt.Library>
libRbt.so (2013.1, Build901 2013/11/27)

>  <Rbt.Parameter_File>
/home/j5wagner/env_00/source/rDock/rDock_2013.1_src//data/scripts/dock.prm

>  <Rbt.Receptor>
/extra/banzai2/j5wagner/CELPP/2016_10_17_rdock_implementation/normal_run/tutorialVideo/tutorial_rdock_implementation/full_week_run/4-docking/5wrn/hiTanimoto_3hb8_tech_prep/rDockGridGenInput.prm

>  <SCORE>
-31.4076

>  <SCORE.INTER>
-19.7893

>  <SCORE.INTER.CONST>
1

>  <SCORE.INTER.POLAR>
-1.95873

>  <SCORE.INTER.REPUL>
0

>  <SCORE.INTER.ROT>
4

>  <SCORE.INTER.VDW>
-22.5296

>  <SCORE.INTER.norm>
-0.989467

>  <SCORE.INTRA>
-1.15403

>  <SCORE.INTRA.DIHEDRAL>
-2.6764

>  <SCORE.INTRA.DIHEDRAL.0>
8.98184

>  <SCORE.INTRA.POLAR>
0

>  <SCORE.INTRA.POLAR.0>
0

>  <SCORE.INTRA.REPUL>
0

>  <SCORE.INTRA.REPUL.0>
0

>  <SCORE.INTRA.VDW>
0.184166

>  <SCORE.INTRA.VDW.0>
-1.60828

>  <SCORE.INTRA.norm>
-0.0577017

>  <SCORE.RESTR>
0

>  <SCORE.RESTR.CAVITY>
0

>  <SCORE.RESTR.norm>
0

>  <SCORE.SYSTEM>
-10.4642

>  <SCORE.SYSTEM.CONST>
0

>  <SCORE.SYSTEM.DIHEDRAL>
6.34591

>  <SCORE.SYSTEM.POLAR>
-4.24482

>  <SCORE.SYSTEM.REPUL>
0.768097

>  <SCORE.SYSTEM.VDW>
-3.04525

>  <SCORE.SYSTEM.norm>
-0.52321

>  <SCORE.heavy>
20

>  <SCORE.norm>
-1.57038

$$$$

  rDOCK(R)          3D
libRbt.so/2013.1/901 2013/11/27
 25 26  0  0  0  0  0  0  0  0999 V2000
    4.1607   10.9021   14.9365 C   0  0  0  0  0  0
    3.9478   12.2476   15.2918 O   0  0  0  0  0  0
    4.0587    9.9700   16.1118 C   0  0  0  0  0  0
    3.4816    8.6927   15.4974 C   0  0  0  0  0  0
    4.5016    7.6188   15.4746 N   0  0  0  0  0  0
    5.0919    7.2066   16.6426 C   0  0  0  0  0  0
    6.0687    6.2145   16.6414 C   0  0  0  0  0  0
    6.4320    5.6364   15.4268 C   0  0  0  0  0  0
    7.3393    4.7140   15.3702 N   0  0  0  0  0  0
    5.8191    6.0413   14.2891 N   0  0  0  0  0  0
    4.8617    7.0061   14.2928 C   0  0  0  0  0  0
    4.2656    7.3331   13.0716 O   0  0  0  0  0  0
    3.0021    8.9721   14.1930 O   0  0  0  0  0  0
    3.0951   10.3625   13.9881 C   0  0  0  0  0  0
    3.4265   10.6465   12.5161 C   0  0  0  0  0  0
    4.7166   10.1666   12.1944 O   0  0  0  0  0  0
    5.2419   10.8358   10.7129 P   0  0  0  0  0  0
    6.7044   10.5160   10.4954 O   0  0  0  0  0  0
    4.3240   10.2375    9.4204 O   0  0  0  0  0  0
    5.0550   12.5154   10.7803 O   0  0  0  0  0  0
    4.0372   12.8046   14.4747 H   0  0  0  0  0  0
    7.8387    4.3655   16.2200 H   0  0  0  0  0  0
    3.9465    8.2599   12.8259 H   0  0  0  0  0  0
    4.7350   10.6257    8.6071 H   0  0  0  0  0  0
    4.0881   12.6534   10.9443 H   0  0  0  0  0  0
  1  2  1  0  0  0
  1  3  1  0  0  0
  3  4  1  0  0  0
  4  5  1  0  0  0
  5  6  1  0  0  0
  6  7  2  0  0  0
  7  8  1  0  0  0
  8  9  2  0  0  0
  8 10  1  0  0  0
 10 11  2  0  0  0
 11 12  1  0  0  0
  4 13  1  0  0  0
 13 14  1  0  0  0
 14 15  1  0  0  0
 15 16  1  0  0  0
 16 17  1  0  0  0
 17 18  2  0  0  0
 17 19  1  0  0  0
 17 20  1  0  0  0
 14  1  1  0  0  0
 11  5  1  0  0  0
  2 21  1  0  0  0
  9 22  1  0  0  0
 12 23  1  0  0  0
 19 24  1  0  0  0
 20 25  1  0  0  0
M  END
>  <CHROM.0>
170.16588015,-56.11767774,-54.97626546,66.00331599,52.35864691,-57.54165629
-157.09989899,8.10452227,79.21478690,63.93715656,-0.87925017,-49.50130798

>  <CHROM.1>
179.50427323,57.99110371,33.85351709,53.91369494,-165.05286664,170.09849911
-176.17500888,-59.13051768,4.79336710,9.11339350,13.55740272,1.80572429,1.01879109
-0.96779589

>  <Name>

>  <RI>
3.49024e+07

>  <Rbt.Current_Directory>
/extra/banzai2/j5wagner/CELPP/2016_10_17_rdock_implementation/normal_run/tutorialVideo/tutorial_rdock_implementation/full_week_run/4-docking/5wrn/hiTanimoto_3hb8_docking

>  <Rbt.Executable>
rbdock ($Id: //depot/dev/client3/rdock/2013.1/src/exe/rbdock.cxx#4 $)

>  <Rbt.Library>
libRbt.so (2013.1, Build901 2013/11/27)

>  <Rbt.Parameter_File>
/home/j5wagner/env_00/source/rDock/rDock_2013.1_src//data/scripts/dock.prm

>  <Rbt.Receptor>
/extra/banzai2/j5wagner/CELPP/2016_10_17_rdock_implementation/normal_run/tutorialVideo/tutorial_rdock_implementation/full_week_run/4-docking/5wrn/hiTanimoto_3hb8_tech_prep/rDockGridGenInput.prm

>  <SCORE>
-18.2405

>  <SCORE.INTER>
-7.17052

>  <SCORE.INTER.CONST>
1

>  <SCORE.INTER.POLAR>
-1.42786

>  <SCORE.INTER.REPUL>
0.0252184

>  <SCORE.INTER.ROT>
4

>  <SCORE.INTER.VDW>
-11.8419

>  <SCORE.INTER.norm>
-0.358526

>  <SCORE.INTRA>
-3.33073

>  <SCORE.INTRA.DIHEDRAL>
-3.69414

>  <SCORE.INTRA.DIHEDRAL.0>
8.98184

>  <SCORE.INTRA.POLAR>
-1.00721

>  <SCORE.INTRA.POLAR.0>
0

>  <SCORE.INTRA.REPUL>
0

>  <SCORE.INTRA.REPUL.0>
0

>  <SCORE.INTRA.VDW>
1.94086

>  <SCORE.INTRA.VDW.0>
-1.60828

>  <SCORE.INTRA.norm>
-0.166536

>  <SCORE.RESTR>
0.0790799

>  <SCORE.RESTR.CAVITY>
0.0790799

>  <SCORE.RESTR.norm>
0.00395399

>  <SCORE.SYSTEM>
-7.81833

>  <SCORE.SYSTEM.CONST>
0

>  <SCORE.SYSTEM.DIHEDRAL>
8.90601

>  <SCORE.SYSTEM.POLAR>
-4.19989

>  <SCORE.SYSTEM.REPUL>
0.7672

>  <SCORE.SYSTEM.VDW>
-1.8277

>  <SCORE.SYSTEM.norm>
-0.390916

>  <SCORE.heavy>
20

>  <SCORE.norm>
-0.912025

$$$$

  rDOCK(R)          3D
libRbt.so/2013.1/901 2013/11/27
 25 26  0  0  0  0  0  0  0  0999 V2000
    4.0169    6.1473   14.7003 C   0  0  0  0  0  0
    3.1734    5.2378   15.3661 O   0  0  0  0  0  0
    3.4740    7.5494   14.7039 C   0  0  0  0  0  0
    4.7356    8.4139   14.7585 C   0  0  0  0  0  0
    4.9410    9.1174   13.4712 N   0  0  0  0  0  0
    5.9720    8.7497   12.6438 C   0  0  0  0  0  0
    6.1967    9.4120   11.4400 C   0  0  0  0  0  0
    5.3450   10.4552   11.0825 C   0  0  0  0  0  0
    5.5141   11.1074    9.9765 N   0  0  0  0  0  0
    4.3191   10.7855   11.9027 N   0  0  0  0  0  0
    4.0979   10.1342   13.0750 C   0  0  0  0  0  0
    2.9946   10.5277   13.8375 O   0  0  0  0  0  0
    5.8506    7.6005   15.0819 O   0  0  0  0  0  0
    5.3708    6.3111   15.3832 C   0  0  0  0  0  0
    6.3890    5.2597   14.9194 C   0  0  0  0  0  0
    7.4301    5.1231   15.8657 O   0  0  0  0  0  0
    8.5888    3.9980   15.3089 P   0  0  0  0  0  0
    7.8929    2.8360   14.6350 O   0  0  0  0  0  0
    9.6684    4.7281   14.2261 O   0  0  0  0  0  0
    9.4607    3.4162   16.6361 O   0  0  0  0  0  0
    2.2598    5.3237   14.9868 H   0  0  0  0  0  0
    6.2885   10.8886    9.3091 H   0  0  0  0  0  0
    2.8339   10.2413   14.7932 H   0  0  0  0  0  0
    9.8919    4.0240   13.5662 H   0  0  0  0  0  0
    9.5367    4.1929   17.2458 H   0  0  0  0  0  0
  1  2  1  0  0  0
  1  3  1  0  0  0
  3  4  1  0  0  0
  4  5  1  0  0  0
  5  6  1  0  0  0
  6  7  2  0  0  0
  7  8  1  0  0  0
  8  9  2  0  0  0
  8 10  1  0  0  0
 10 11  2  0  0  0
 11 12  1  0  0  0
  4 13  1  0  0  0
 13 14  1  0  0  0
 14 15  1  0  0  0
 15 16  1  0  0  0
 16 17  1  0  0  0
 17 18  2  0  0  0
 17 19  1  0  0  0
 17 20  1  0  0  0
 14  1  1  0  0  0
 11  5  1  0  0  0
  2 21  1  0  0  0
  9 22  1  0  0  0
 12 23  1  0  0  0
 19 24  1  0  0  0
 20 25  1  0  0  0
M  END
>  <CHROM.0>
165.05533800,62.65647501,-177.76445130,-175.67242220,50.81734893,-176.69711393
-145.46527368,-169.52712983,-179.18365726,65.03498743,6.44625956,52.87035978

>  <CHROM.1>
52.51306109,-109.49342243,12.55277475,-159.21276982,-177.69853035,-39.65491648
-145.68629312,-35.48454195,5.99474298,7.03048055,14.10516058,2.11294069,0.37792236
-0.69134248

>  <Name>

>  <RI>
3.49024e+07

>  <Rbt.Current_Directory>
/extra/banzai2/j5wagner/CELPP/2016_10_17_rdock_implementation/normal_run/tutorialVideo/tutorial_rdock_implementation/full_week_run/4-docking/5wrn/hiTanimoto_3hb8_docking

>  <Rbt.Executable>
rbdock ($Id: //depot/dev/client3/rdock/2013.1/src/exe/rbdock.cxx#4 $)

>  <Rbt.Library>
libRbt.so (2013.1, Build901 2013/11/27)

>  <Rbt.Parameter_File>
/home/j5wagner/env_00/source/rDock/rDock_2013.1_src//data/scripts/dock.prm

>  <Rbt.Receptor>
/extra/banzai2/j5wagner/CELPP/2016_10_17_rdock_implementation/normal_run/tutorialVideo/tutorial_rdock_implementation/full_week_run/4-docking/5wrn/hiTanimoto_3hb8_tech_prep/rDockGridGenInput.prm

>  <SCORE>
-19.6096

>  <SCORE.INTER>
-15.2429

>  <SCORE.INTER.CONST>
1

>  <SCORE.INTER.POLAR>
-0.82695

>  <SCORE.INTER.REPUL>
0

>  <SCORE.INTER.ROT>
4

>  <SCORE.INTER.VDW>
-21.8313

>  <SCORE.INTER.norm>
-0.762144

>  <SCORE.INTRA>
0.167989

>  <SCORE.INTRA.DIHEDRAL>
-1.50383

>  <SCORE.INTRA.DIHEDRAL.0>
8.98184

>  <SCORE.INTRA.POLAR>
0

>  <SCORE.INTRA.POLAR.0>
0

>  <SCORE.INTRA.REPUL>
0

>  <SCORE.INTRA.REPUL.0>
0

>  <SCORE.INTRA.VDW>
0.919903

>  <SCORE.INTRA.VDW.0>
-1.60828

>  <SCORE.INTRA.norm>
0.00839946

>  <SCORE.RESTR>
0

>  <SCORE.RESTR.CAVITY>
0

>  <SCORE.RESTR.norm>
0

>  <SCORE.SYSTEM>
-4.53471

>  <SCORE.SYSTEM.CONST>
0

>  <SCORE.SYSTEM.DIHEDRAL>
8.46666

>  <SCORE.SYSTEM.POLAR>
-3.05137

>  <SCORE.SYSTEM.REPUL>
0.796672

>  <SCORE.SYSTEM.VDW>
-2.37673

>  <SCORE.SYSTEM.norm>
-0.226735

>  <SCORE.heavy>
20

>  <SCORE.norm>
-0.98048

$$$$

  rDOCK(R)          3D
libRbt.so/2013.1/901 2013/11/27
 25 26  0  0  0  0  0  0  0  0999 V2000
    2.9344    9.8628   13.2825 C   0  0  0  0  0  0
    1.6210   10.2197   13.6425 O   0  0  0  0  0  0
    3.5316   10.7995   12.2694 C   0  0  0  0  0  0
    5.0172   10.8126   12.6369 C   0  0  0  0  0  0
    5.8156   10.1143   11.6028 N   0  0  0  0  0  0
    6.2848   10.8049   10.5140 C   0  0  0  0  0  0
    7.0181   10.1636    9.5194 C   0  0  0  0  0  0
    7.2778    8.8013    9.6543 C   0  0  0  0  0  0
    7.9501    8.1565    8.7546 N   0  0  0  0  0  0
    6.8260    8.1446   10.7491 N   0  0  0  0  0  0
    6.1148    8.7734   11.7219 C   0  0  0  0  0  0
    5.7193    8.0165   12.8284 O   0  0  0  0  0  0
    5.1929   10.2154   13.9104 O   0  0  0  0  0  0
    3.9160    9.9581   14.4459 C   0  0  0  0  0  0
    3.9563    8.6710   15.2819 C   0  0  0  0  0  0
    5.2778    8.1775   15.3732 O   0  0  0  0  0  0
    5.2820    6.6371   16.1119 P   0  0  0  0  0  0
    3.9763    5.9280   15.8271 O   0  0  0  0  0  0
    6.5786    5.7015   15.5511 O   0  0  0  0  0  0
    5.4401    6.8381   17.7837 O   0  0  0  0  0  0
    1.3016    9.5813   14.3327 H   0  0  0  0  0  0
    8.3225    8.6188    7.8941 H   0  0  0  0  0  0
    5.7869    8.3327   13.7857 H   0  0  0  0  0  0
    6.3965    5.5537   14.5888 H   0  0  0  0  0  0
    6.2950    7.3249   17.8976 H   0  0  0  0  0  0
  1  2  1  0  0  0
  1  3  1  0  0  0
  3  4  1  0  0  0
  4  5  1  0  0  0
  5  6  1  0  0  0
  6  7  2  0  0  0
  7  8  1  0  0  0
  8  9  2  0  0  0
  8 10  1  0  0  0
 10 11  2  0  0  0
 11 12  1  0  0  0
  4 13  1  0  0  0
 13 14  1  0  0  0
 14 15  1  0  0  0
 15 16  1  0  0  0
 16 17  1  0  0  0
 17 18  2  0  0  0
 17 19  1  0  0  0
 17 20  1  0  0  0
 14  1  1  0  0  0
 11  5  1  0  0  0
  2 21  1  0  0  0
  9 22  1  0  0  0
 12 23  1  0  0  0
 19 24  1  0  0  0
 20 25  1  0  0  0
M  END
>  <CHROM.0>
166.95994079,-56.59949808,-54.52197747,65.17019814,-164.12806452,64.95429592
-145.08029194,-174.62328748,-58.86102567,63.08560333,2.31000191,169.44907028

>  <CHROM.1>
-178.10797328,87.84550938,-43.51384518,124.89556258,-172.00002493,28.99040162
-65.07617477,-58.97030331,5.25654524,8.63544887,13.38518668,1.89325852,-0.68521690
2.18731076

>  <Name>

>  <RI>
3.49024e+07

>  <Rbt.Current_Directory>
/extra/banzai2/j5wagner/CELPP/2016_10_17_rdock_implementation/normal_run/tutorialVideo/tutorial_rdock_implementation/full_week_run/4-docking/5wrn/hiTanimoto_3hb8_docking

>  <Rbt.Executable>
rbdock ($Id: //depot/dev/client3/rdock/2013.1/src/exe/rbdock.cxx#4 $)

>  <Rbt.Library>
libRbt.so (2013.1, Build901 2013/11/27)

>  <Rbt.Parameter_File>
/home/j5wagner/env_00/source/rDock/rDock_2013.1_src//data/scripts/dock.prm

>  <Rbt.Receptor>
/extra/banzai2/j5wagner/CELPP/2016_10_17_rdock_implementation/normal_run/tutorialVideo/tutorial_rdock_implementation/full_week_run/4-docking/5wrn/hiTanimoto_3hb8_tech_prep/rDockGridGenInput.prm

>  <SCORE>
-23.3009

>  <SCORE.INTER>
-11.4734

>  <SCORE.INTER.CONST>
1

>  <SCORE.INTER.POLAR>
-1.38725

>  <SCORE.INTER.REPUL>
0.0077782

>  <SCORE.INTER.ROT>
4

>  <SCORE.INTER.VDW>
-16.1957

>  <SCORE.INTER.norm>
-0.573671

>  <SCORE.INTRA>
-1.12597

>  <SCORE.INTRA.DIHEDRAL>
2.48753

>  <SCORE.INTRA.DIHEDRAL.0>
8.98184

>  <SCORE.INTRA.POLAR>
-1.13373

>  <SCORE.INTRA.POLAR.0>
0

>  <SCORE.INTRA.REPUL>
0

>  <SCORE.INTRA.REPUL.0>
0

>  <SCORE.INTRA.VDW>
1.48496

>  <SCORE.INTRA.VDW.0>
-1.60828

>  <SCORE.INTRA.norm>
-0.0562987

>  <SCORE.RESTR>
0.00804329

>  <SCORE.RESTR.CAVITY>
0.00804329

>  <SCORE.RESTR.norm>
0.000402164

>  <SCORE.SYSTEM>
-10.7095

>  <SCORE.SYSTEM.CONST>
0

>  <SCORE.SYSTEM.DIHEDRAL>
2.89504

>  <SCORE.SYSTEM.POLAR>
-4.24443

>  <SCORE.SYSTEM.REPUL>
0.731396

>  <SCORE.SYSTEM.VDW>
-1.38293

>  <SCORE.SYSTEM.norm>
-0.535475

>  <SCORE.heavy>
20

>  <SCORE.norm>
-1.16504

$$$$

  rDOCK(R)          3D
libRbt.so/2013.1/901 2013/11/27
 25 26  0  0  0  0  0  0  0  0999 V2000
    3.4625    8.8738   14.2789 C   0  0  0  0  0  0
    2.3791    8.3898   15.0365 O   0  0  0  0  0  0
    3.0244    9.7378   13.1290 C   0  0  0  0  0  0
    4.1569   10.7598   13.0070 C   0  0  0  0  0  0
    4.9416   10.5228   11.7731 N   0  0  0  0  0  0
    5.9242    9.5654   11.7568 C   0  0  0  0  0  0
    6.6886    9.3415   10.6148 C   0  0  0  0  0  0
    6.4304   10.1047    9.4780 C   0  0  0  0  0  0
    7.1165    9.9400    8.3921 N   0  0  0  0  0  0
    5.4396   11.0275    9.5088 N   0  0  0  0  0  0
    4.6907   11.2409   10.6228 C   0  0  0  0  0  0
    3.6705   12.1933   10.5460 O   0  0  0  0  0  0
    4.9799   10.6912   14.1591 O   0  0  0  0  0  0
    4.3716    9.8074   15.0715 C   0  0  0  0  0  0
    5.4525    9.0455   15.8514 C   0  0  0  0  0  0
    6.0043    8.0132   15.0588 O   0  0  0  0  0  0
    5.6267    6.4886   15.7307 P   0  0  0  0  0  0
    6.3304    5.3974   14.9543 O   0  0  0  0  0  0
    6.0804    6.4178   17.3617 O   0  0  0  0  0  0
    3.9566    6.2463   15.6203 O   0  0  0  0  0  0
    1.8291    7.8020   14.4553 H   0  0  0  0  0  0
    7.8887    9.2392    8.3172 H   0  0  0  0  0  0
    3.6900   12.9978    9.9348 H   0  0  0  0  0  0
    5.5489    7.1227   17.8109 H   0  0  0  0  0  0
    3.8004    5.3736   16.0619 H   0  0  0  0  0  0
  1  2  1  0  0  0
  1  3  1  0  0  0
  3  4  1  0  0  0
  4  5  1  0  0  0
  5  6  1  0  0  0
  6  7  2  0  0  0
  7  8  1  0  0  0
  8  9  2  0  0  0
  8 10  1  0  0  0
 10 11  2  0  0  0
 11 12  1  0  0  0
  4 13  1  0  0  0
 13 14  1  0  0  0
 14 15  1  0  0  0
 15 16  1  0  0  0
 16 17  1  0  0  0
 17 18  2  0  0  0
 17 19  1  0  0  0
 17 20  1  0  0  0
 14  1  1  0  0  0
 11  5  1  0  0  0
  2 21  1  0  0  0
  9 22  1  0  0  0
 12 23  1  0  0  0
 19 24  1  0  0  0
 20 25  1  0  0  0
M  END
>  <CHROM.0>
168.79248035,63.47289273,-54.25893993,-61.61200889,47.19172305,61.75447381
-145.76010699,6.40393920,-59.79827415,-67.47318649,-166.37360678,-172.47461104

>  <CHROM.1>
63.55945596,-82.10598064,151.65909518,42.37152111,-114.58467873,-174.58121068
61.35885476,-177.37512425,5.04394328,8.95756842,13.36051913,1.61365459,-0.67785410
2.19563835

>  <Name>

>  <RI>
3.49024e+07

>  <Rbt.Current_Directory>
/extra/banzai2/j5wagner/CELPP/2016_10_17_rdock_implementation/normal_run/tutorialVideo/tutorial_rdock_implementation/full_week_run/4-docking/5wrn/hiTanimoto_3hb8_docking

>  <Rbt.Executable>
rbdock ($Id: //depot/dev/client3/rdock/2013.1/src/exe/rbdock.cxx#4 $)

>  <Rbt.Library>
libRbt.so (2013.1, Build901 2013/11/27)

>  <Rbt.Parameter_File>
/home/j5wagner/env_00/source/rDock/rDock_2013.1_src//data/scripts/dock.prm

>  <Rbt.Receptor>
/extra/banzai2/j5wagner/CELPP/2016_10_17_rdock_implementation/normal_run/tutorialVideo/tutorial_rdock_implementation/full_week_run/4-docking/5wrn/hiTanimoto_3hb8_tech_prep/rDockGridGenInput.prm

>  <SCORE>
-28.2054

>  <SCORE.INTER>
-14.7672

>  <SCORE.INTER.CONST>
1

>  <SCORE.INTER.POLAR>
-1.48789

>  <SCORE.INTER.REPUL>
0.436273

>  <SCORE.INTER.ROT>
4

>  <SCORE.INTER.VDW>
-21.2897

>  <SCORE.INTER.norm>
-0.738359

>  <SCORE.INTRA>
0.79479

>  <SCORE.INTRA.DIHEDRAL>
2.87939

>  <SCORE.INTRA.DIHEDRAL.0>
8.98184

>  <SCORE.INTRA.POLAR>
0

>  <SCORE.INTRA.POLAR.0>
0

>  <SCORE.INTRA.REPUL>
0

>  <SCORE.INTRA.REPUL.0>
0

>  <SCORE.INTRA.VDW>
-0.644905

>  <SCORE.INTRA.VDW.0>
-1.60828

>  <SCORE.INTRA.norm>
0.0397395

>  <SCORE.RESTR>
0.0522338

>  <SCORE.RESTR.CAVITY>
0.0522338

>  <SCORE.RESTR.norm>
0.00261169

>  <SCORE.SYSTEM>
-14.2852

>  <SCORE.SYSTEM.CONST>
0

>  <SCORE.SYSTEM.DIHEDRAL>
5.30246

>  <SCORE.SYSTEM.POLAR>
-4.24601

>  <SCORE.SYSTEM.REPUL>
0.0735211

>  <SCORE.SYSTEM.VDW>
-2.86759

>  <SCORE.SYSTEM.norm>
-0.71426

>  <SCORE.heavy>
20

>  <SCORE.norm>
-1.41027

$$$$

  rDOCK(R)          3D
libRbt.so/2013.1/901 2013/11/27
 25 26  0  0  0  0  0  0  0  0999 V2000
    4.8537    9.6492   14.3640 C   0  0  0  0  0  0
    4.9121    9.7752   15.7649 O   0  0  0  0  0  0
    6.2027    9.4000   13.7486 C   0  0  0  0  0  0
    5.8808    8.5081   12.5474 C   0  0  0  0  0  0
    6.0844    9.2477   11.2801 N   0  0  0  0  0  0
    7.0322    8.8252   10.3824 C   0  0  0  0  0  0
    7.2554    9.5182    9.1957 C   0  0  0  0  0  0
    6.4880   10.6501    8.9288 C   0  0  0  0  0  0
    6.6601   11.3337    7.8423 N   0  0  0  0  0  0
    5.5414   11.0352    9.8175 N   0  0  0  0  0  0
    5.3210   10.3543   10.9730 C   0  0  0  0  0  0
    4.3004   10.8120   11.8111 O   0  0  0  0  0  0
    4.5494    8.0338   12.6559 O   0  0  0  0  0  0
    4.0494    8.4356   13.9098 C   0  0  0  0  0  0
    2.5491    8.7403   13.7940 C   0  0  0  0  0  0
    1.8570    7.6351   13.2483 O   0  0  0  0  0  0
    0.1726    7.9182   13.2844 P   0  0  0  0  0  0
   -0.1077    9.3802   13.0148 O   0  0  0  0  0  0
   -0.6261    6.9587   12.1387 O   0  0  0  0  0  0
   -0.4101    7.5257   14.8228 O   0  0  0  0  0  0
    3.9927    9.9381   16.1027 H   0  0  0  0  0  0
    7.3750   11.0755    7.1245 H   0  0  0  0  0  0
    3.6597   11.5557   11.5712 H   0  0  0  0  0  0
   -0.4703    6.0241   12.4272 H   0  0  0  0  0  0
   -1.3873    7.6767   14.7665 H   0  0  0  0  0  0
  1  2  1  0  0  0
  1  3  1  0  0  0
  3  4  1  0  0  0
  4  5  1  0  0  0
  5  6  1  0  0  0
  6  7  2  0  0  0
  7  8  1  0  0  0
  8  9  2  0  0  0
  8 10  1  0  0  0
 10 11  2  0  0  0
 11 12  1  0  0  0
  4 13  1  0  0  0
 13 14  1  0  0  0
 14 15  1  0  0  0
 15 16  1  0  0  0
 16 17  1  0  0  0
 17 18  2  0  0  0
 17 19  1  0  0  0
 17 20  1  0  0  0
 14  1  1  0  0  0
 11  5  1  0  0  0
  2 21  1  0  0  0
  9 22  1  0  0  0
 12 23  1  0  0  0
 19 24  1  0  0  0
 20 25  1  0  0  0
M  END
>  <CHROM.0>
168.20131526,-179.07338834,-55.66671262,-176.45751238,-175.08756131,-178.86115371
-140.65385313,8.93637655,-179.83453642,-67.63876496,3.87755489,-166.84347829

>  <CHROM.1>
179.95251331,117.29929046,-173.15384610,174.30953462,173.75979662,36.14965186
63.70982085,-177.85835792,3.74156220,9.07680041,12.32507598,-0.56016958,0.26119393
1.73748087

>  <Name>

>  <RI>
3.49024e+07

>  <Rbt.Current_Directory>
/extra/banzai2/j5wagner/CELPP/2016_10_17_rdock_implementation/normal_run/tutorialVideo/tutorial_rdock_implementation/full_week_run/4-docking/5wrn/hiTanimoto_3hb8_docking

>  <Rbt.Executable>
rbdock ($Id: //depot/dev/client3/rdock/2013.1/src/exe/rbdock.cxx#4 $)

>  <Rbt.Library>
libRbt.so (2013.1, Build901 2013/11/27)

>  <Rbt.Parameter_File>
/home/j5wagner/env_00/source/rDock/rDock_2013.1_src//data/scripts/dock.prm

>  <Rbt.Receptor>
/extra/banzai2/j5wagner/CELPP/2016_10_17_rdock_implementation/normal_run/tutorialVideo/tutorial_rdock_implementation/full_week_run/4-docking/5wrn/hiTanimoto_3hb8_tech_prep/rDockGridGenInput.prm

>  <SCORE>
-33.7631

>  <SCORE.INTER>
-17.0773

>  <SCORE.INTER.CONST>
1

>  <SCORE.INTER.POLAR>
-1.07788

>  <SCORE.INTER.REPUL>
0

>  <SCORE.INTER.ROT>
4

>  <SCORE.INTER.VDW>
-22.8125

>  <SCORE.INTER.norm>
-0.853863

>  <SCORE.INTRA>
-2.76112

>  <SCORE.INTRA.DIHEDRAL>
-5.34844

>  <SCORE.INTRA.DIHEDRAL.0>
8.98184

>  <SCORE.INTRA.POLAR>
0

>  <SCORE.INTRA.POLAR.0>
0

>  <SCORE.INTRA.REPUL>
0

>  <SCORE.INTRA.REPUL.0>
0

>  <SCORE.INTRA.VDW>
-0.0869022

>  <SCORE.INTRA.VDW.0>
-1.60828

>  <SCORE.INTRA.norm>
-0.138056

>  <SCORE.RESTR>
0

>  <SCORE.RESTR.CAVITY>
0

>  <SCORE.RESTR.norm>
0

>  <SCORE.SYSTEM>
-13.9248

>  <SCORE.SYSTEM.CONST>
0

>  <SCORE.SYSTEM.DIHEDRAL>
3.12379

>  <SCORE.SYSTEM.POLAR>
-4.25137

>  <SCORE.SYSTEM.REPUL>
0.048816

>  <SCORE.SYSTEM.VDW>
-1.27606

>  <SCORE.SYSTEM.norm>
-0.696238

>  <SCORE.heavy>
20

>  <SCORE.norm>
-1.68816

$$$$

  rDOCK(R)          3D
libRbt.so/2013.1/901 2013/11/27
 25 26  0  0  0  0  0  0  0  0999 V2000
    4.0684   10.1611   13.2718 C   0  0  0  0  0  0
    3.1475   10.7003   12.3536 O   0  0  0  0  0  0
    3.4209    9.2380   14.2665 C   0  0  0  0  0  0
    4.5093    8.1974   14.5394 C   0  0  0  0  0  0
    5.0478    8.3543   15.9105 N   0  0  0  0  0  0
    4.8722    9.5350   16.5870 C   0  0  0  0  0  0
    5.3892    9.7116   17.8676 C   0  0  0  0  0  0
    6.0841    8.6583   18.4584 C   0  0  0  0  0  0
    6.5899    8.7732   19.6452 N   0  0  0  0  0  0
    6.2246    7.4934   17.7822 N   0  0  0  0  0  0
    5.7145    7.3208   16.5343 C   0  0  0  0  0  0
    5.8846    6.0714   15.9311 O   0  0  0  0  0  0
    5.5346    8.3220   13.5685 O   0  0  0  0  0  0
    5.1098    9.2637   12.6112 C   0  0  0  0  0  0
    6.3189   10.0561   12.0942 C   0  0  0  0  0  0
    6.8939    9.4131   10.9743 O   0  0  0  0  0  0
    6.4504   10.2236    9.5373 P   0  0  0  0  0  0
    5.0294    9.8638    9.1631 O   0  0  0  0  0  0
    6.5887   11.9022    9.7229 O   0  0  0  0  0  0
    7.4841    9.7275    8.2941 O   0  0  0  0  0  0
    3.6341   11.3223   11.7517 H   0  0  0  0  0  0
    6.5058    9.6500   20.2083 H   0  0  0  0  0  0
    6.5850    5.3979   16.2083 H   0  0  0  0  0  0
    7.5621   12.0808    9.7619 H   0  0  0  0  0  0
    8.3861   10.0082    8.5915 H   0  0  0  0  0  0
  1  2  1  0  0  0
  1  3  1  0  0  0
  3  4  1  0  0  0
  4  5  1  0  0  0
  5  6  1  0  0  0
  6  7  2  0  0  0
  7  8  1  0  0  0
  8  9  2  0  0  0
  8 10  1  0  0  0
 10 11  2  0  0  0
 11 12  1  0  0  0
  4 13  1  0  0  0
 13 14  1  0  0  0
 14 15  1  0  0  0
 15 16  1  0  0  0
 16 17  1  0  0  0
 17 18  2  0  0  0
 17 19  1  0  0  0
 17 20  1  0  0  0
 14  1  1  0  0  0
 11  5  1  0  0  0
  2 21  1  0  0  0
  9 22  1  0  0  0
 12 23  1  0  0  0
 19 24  1  0  0  0
 20 25  1  0  0  0
M  END
>  <CHROM.0>
-89.06746618,64.54574603,-53.88327162,65.29400364,-179.37642859,-179.99972125
-147.04620957,8.80522905,-178.31562123,-68.65546439,7.30789431,-171.69056177

>  <CHROM.1>
177.93364351,-19.36819265,160.36561302,-150.66195463,103.29917447,-77.24572924
70.79180683,-61.62018118,5.60554682,9.24178047,13.52372755,1.49097521,0.56319603
-1.27371964

>  <Name>

>  <RI>
3.49024e+07

>  <Rbt.Current_Directory>
/extra/banzai2/j5wagner/CELPP/2016_10_17_rdock_implementation/normal_run/tutorialVideo/tutorial_rdock_implementation/full_week_run/4-docking/5wrn/hiTanimoto_3hb8_docking

>  <Rbt.Executable>
rbdock ($Id: //depot/dev/client3/rdock/2013.1/src/exe/rbdock.cxx#4 $)

>  <Rbt.Library>
libRbt.so (2013.1, Build901 2013/11/27)

>  <Rbt.Parameter_File>
/home/j5wagner/env_00/source/rDock/rDock_2013.1_src//data/scripts/dock.prm

>  <Rbt.Receptor>
/extra/banzai2/j5wagner/CELPP/2016_10_17_rdock_implementation/normal_run/tutorialVideo/tutorial_rdock_implementation/full_week_run/4-docking/5wrn/hiTanimoto_3hb8_tech_prep/rDockGridGenInput.prm

>  <SCORE>
-22.0086

>  <SCORE.INTER>
-17.1413

>  <SCORE.INTER.CONST>
1

>  <SCORE.INTER.POLAR>
-0.920496

>  <SCORE.INTER.REPUL>
0

>  <SCORE.INTER.ROT>
4

>  <SCORE.INTER.VDW>
-23.4116

>  <SCORE.INTER.norm>
-0.857065

>  <SCORE.INTRA>
2.98355

>  <SCORE.INTRA.DIHEDRAL>
3.09299

>  <SCORE.INTRA.DIHEDRAL.0>
8.98184

>  <SCORE.INTRA.POLAR>
0

>  <SCORE.INTRA.POLAR.0>
0

>  <SCORE.INTRA.REPUL>
0

>  <SCORE.INTRA.REPUL.0>
0

>  <SCORE.INTRA.VDW>
1.43705

>  <SCORE.INTRA.VDW.0>
-1.60828

>  <SCORE.INTRA.norm>
0.149177

>  <SCORE.RESTR>
0

>  <SCORE.RESTR.CAVITY>
0

>  <SCORE.RESTR.norm>
0

>  <SCORE.SYSTEM>
-7.85082

>  <SCORE.SYSTEM.CONST>
0

>  <SCORE.SYSTEM.DIHEDRAL>
7.3265

>  <SCORE.SYSTEM.POLAR>
-3.21446

>  <SCORE.SYSTEM.REPUL>
0.0131239

>  <SCORE.SYSTEM.VDW>
-0.650541

>  <SCORE.SYSTEM.norm>
-0.392541

>  <SCORE.heavy>
20

>  <SCORE.norm>
-1.10043

$$$$

  rDOCK(R)          3D
libRbt.so/2013.1/901 2013/11/27
 25 26  0  0  0  0  0  0  0  0999 V2000
    5.3138    9.4660   15.4451 C   0  0  0  0  0  0
    5.8653   10.6037   16.0645 O   0  0  0  0  0  0
    4.1576    8.8910   16.2153 C   0  0  0  0  0  0
    3.2471    8.3351   15.1180 C   0  0  0  0  0  0
    3.2470    6.8540   15.1420 N   0  0  0  0  0  0
    2.5918    6.1828   16.1434 C   0  0  0  0  0  0
    2.5976    4.7916   16.1976 C   0  0  0  0  0  0
    3.2765    4.0874   15.2053 C   0  0  0  0  0  0
    3.3175    2.7930   15.2130 N   0  0  0  0  0  0
    3.8960    4.7696   14.2128 N   0  0  0  0  0  0
    3.8846    6.1276   14.1584 C   0  0  0  0  0  0
    4.5260    6.7389   13.0774 O   0  0  0  0  0  0
    3.6722    8.8274   13.8586 O   0  0  0  0  0  0
    4.6918    9.7720   14.0866 C   0  0  0  0  0  0
    5.7189    9.7085   12.9472 C   0  0  0  0  0  0
    5.0760    9.4805   11.7091 O   0  0  0  0  0  0
    4.7825   10.9645   10.9153 P   0  0  0  0  0  0
    4.3696   12.0132   11.9244 O   0  0  0  0  0  0
    6.1604   11.4842   10.0770 O   0  0  0  0  0  0
    3.5228   10.7471    9.8080 O   0  0  0  0  0  0
    5.1611   11.3015   16.1201 H   0  0  0  0  0  0
    2.8530    2.2215   15.9550 H   0  0  0  0  0  0
    4.3983    7.7063   12.8149 H   0  0  0  0  0  0
    6.4788   10.6887    9.5803 H   0  0  0  0  0  0
    3.4843   11.5977    9.3023 H   0  0  0  0  0  0
  1  2  1  0  0  0
  1  3  1  0  0  0
  3  4  1  0  0  0
  4  5  1  0  0  0
  5  6  1  0  0  0
  6  7  2  0  0  0
  7  8  1  0  0  0
  8  9  2  0  0  0
  8 10  1  0  0  0
 10 11  2  0  0  0
 11 12  1  0  0  0
  4 13  1  0  0  0
 13 14  1  0  0  0
 14 15  1  0  0  0
 15 16  1  0  0  0
 16 17  1  0  0  0
 17 18  2  0  0  0
 17 19  1  0  0  0
 17 20  1  0  0  0
 14  1  1  0  0  0
 11  5  1  0  0  0
  2 21  1  0  0  0
  9 22  1  0  0  0
 12 23  1  0  0  0
 19 24  1  0  0  0
 20 25  1  0  0  0
M  END
>  <CHROM.0>
48.39728131,-176.05765016,-57.04790773,59.28717690,176.45816704,177.38125366
-137.73648695,-169.83255864,178.69093571,-172.55429378,-179.38624972,-50.86468022

>  <CHROM.1>
-60.86657943,72.94583188,-14.67079313,157.43411090,94.73208653,-38.72444063
47.07884406,-172.69303863,4.27378496,8.42813056,13.59033548,-0.67492113,1.28553278
1.66085871

>  <Name>

>  <RI>
3.49024e+07

>  <Rbt.Current_Directory>
/extra/banzai2/j5wagner/CELPP/2016_10_17_rdock_implementation/normal_run/tutorialVideo/tutorial_rdock_implementation/full_week_run/4-docking/5wrn/hiTanimoto_3hb8_docking

>  <Rbt.Executable>
rbdock ($Id: //depot/dev/client3/rdock/2013.1/src/exe/rbdock.cxx#4 $)

>  <Rbt.Library>
libRbt.so (2013.1, Build901 2013/11/27)

>  <Rbt.Parameter_File>
/home/j5wagner/env_00/source/rDock/rDock_2013.1_src//data/scripts/dock.prm

>  <Rbt.Receptor>
/extra/banzai2/j5wagner/CELPP/2016_10_17_rdock_implementation/normal_run/tutorialVideo/tutorial_rdock_implementation/full_week_run/4-docking/5wrn/hiTanimoto_3hb8_tech_prep/rDockGridGenInput.prm

>  <SCORE>
-23.5597

>  <SCORE.INTER>
-13.743

>  <SCORE.INTER.CONST>
1

>  <SCORE.INTER.POLAR>
-2.44173

>  <SCORE.INTER.REPUL>
0.645175

>  <SCORE.INTER.ROT>
4

>  <SCORE.INTER.VDW>
-18.067

>  <SCORE.INTER.norm>
-0.687151

>  <SCORE.INTRA>
-1.67237

>  <SCORE.INTRA.DIHEDRAL>
0.94521

>  <SCORE.INTRA.DIHEDRAL.0>
8.98184

>  <SCORE.INTRA.POLAR>
-1.29775

>  <SCORE.INTRA.POLAR.0>
0

>  <SCORE.INTRA.REPUL>
0

>  <SCORE.INTRA.REPUL.0>
0

>  <SCORE.INTRA.VDW>
2.26737

>  <SCORE.INTRA.VDW.0>
-1.60828

>  <SCORE.INTRA.norm>
-0.0836184

>  <SCORE.RESTR>
0.0158979

>  <SCORE.RESTR.CAVITY>
0.0158979

>  <SCORE.RESTR.norm>
0.000794895

>  <SCORE.SYSTEM>
-8.16017

>  <SCORE.SYSTEM.CONST>
0

>  <SCORE.SYSTEM.DIHEDRAL>
8.17766

>  <SCORE.SYSTEM.POLAR>
-3.21446

>  <SCORE.SYSTEM.VDW>
-1.31985

>  <SCORE.SYSTEM.norm>
-0.408008

>  <SCORE.heavy>
20

>  <SCORE.norm>
-1.17798

$$$$

  rDOCK(R)          3D
libRbt.so/2013.1/901 2013/11/27
 25 26  0  0  0  0  0  0  0  0999 V2000
    4.4437    7.5920   13.8281 C   0  0  0  0  0  0
    5.7165    7.0025   13.9486 O   0  0  0  0  0  0
    3.4225    6.9530   14.7278 C   0  0  0  0  0  0
    2.5021    8.1186   15.0970 C   0  0  0  0  0  0
    1.1784    7.9620   14.4506 N   0  0  0  0  0  0
    0.7255    8.9139   13.5723 C   0  0  0  0  0  0
   -0.5247    8.7977   12.9707 C   0  0  0  0  0  0
   -1.3093    7.6859   13.2701 C   0  0  0  0  0  0
   -2.4820    7.5333   12.7421 N   0  0  0  0  0  0
   -0.8323    6.7464   14.1211 N   0  0  0  0  0  0
    0.3907    6.8587   14.7033 C   0  0  0  0  0  0
    0.8072    5.8216   15.5427 O   0  0  0  0  0  0
    3.1149    9.3403   14.7210 O   0  0  0  0  0  0
    4.4193    9.0495   14.2765 C   0  0  0  0  0  0
    4.8068   10.0139   13.1464 C   0  0  0  0  0  0
    3.9037    9.9022   12.0647 O   0  0  0  0  0  0
    4.4304   10.8650   10.7554 P   0  0  0  0  0  0
    3.3917   10.8481    9.6557 O   0  0  0  0  0  0
    4.7145   12.4594   11.2536 O   0  0  0  0  0  0
    5.8727   10.2188   10.1533 O   0  0  0  0  0  0
    6.0208    7.1051   14.8881 H   0  0  0  0  0  0
   -2.8928    8.2282   12.0779 H   0  0  0  0  0  0
    0.2680    4.9863   15.7233 H   0  0  0  0  0  0
    5.0610   12.9254   10.4512 H   0  0  0  0  0  0
    5.6155    9.3395    9.7772 H   0  0  0  0  0  0
  1  2  1  0  0  0
  1  3  1  0  0  0
  3  4  1  0  0  0
  4  5  1  0  0  0
  5  6  1  0  0  0
  6  7  2  0  0  0
  7  8  1  0  0  0
  8  9  2  0  0  0
  8 10  1  0  0  0
 10 11  2  0  0  0
 11 12  1  0  0  0
  4 13  1  0  0  0
 13 14  1  0  0  0
 14 15  1  0  0  0
 15 16  1  0  0  0
 16 17  1  0  0  0
 17 18  2  0  0  0
 17 19  1  0  0  0
 17 20  1  0  0  0
 14  1  1  0  0  0
 11  5  1  0  0  0
  2 21  1  0  0  0
  9 22  1  0  0  0
 12 23  1  0  0  0
 19 24  1  0  0  0
 20 25  1  0  0  0
M  END
>  <CHROM.0>
170.10032238,59.60133926,-54.22177870,-63.71837557,46.38013145,-60.04882887
-162.75341375,-167.44624197,-59.48757964,59.70622040,-179.35142616,52.87207068

>  <CHROM.1>
-60.20527984,-119.28726972,-177.84009098,60.66411736,-174.47498750,-174.43681203
176.90487135,66.15543383,2.65883529,8.80879389,13.04550225,-0.74680433,0.11808579
2.29388485

>  <Name>

>  <RI>
3.49024e+07

>  <Rbt.Current_Directory>
/extra/banzai2/j5wagner/CELPP/2016_10_17_rdock_implementation/normal_run/tutorialVideo/tutorial_rdock_implementation/full_week_run/4-docking/5wrn/hiTanimoto_3hb8_docking

>  <Rbt.Executable>
rbdock ($Id: //depot/dev/client3/rdock/2013.1/src/exe/rbdock.cxx#4 $)

>  <Rbt.Library>
libRbt.so (2013.1, Build901 2013/11/27)

>  <Rbt.Parameter_File>
/home/j5wagner/env_00/source/rDock/rDock_2013.1_src//data/scripts/dock.prm

>  <Rbt.Receptor>
/extra/banzai2/j5wagner/CELPP/2016_10_17_rdock_implementation/normal_run/tutorialVideo/tutorial_rdock_implementation/full_week_run/4-docking/5wrn/hiTanimoto_3hb8_tech_prep/rDockGridGenInput.prm

>  <SCORE>
-32.2578

>  <SCORE.INTER>
-20.0114

>  <SCORE.INTER.CONST>
1

>  <SCORE.INTER.POLAR>
-3.39465

>  <SCORE.INTER.REPUL>
0

>  <SCORE.INTER.ROT>
4

>  <SCORE.INTER.VDW>
-17.8696

>  <SCORE.INTER.norm>
-1.00057

>  <SCORE.INTRA>
-2.46433

>  <SCORE.INTRA.DIHEDRAL>
-6.216

>  <SCORE.INTRA.DIHEDRAL.0>
8.98184

>  <SCORE.INTRA.POLAR>
0

>  <SCORE.INTRA.POLAR.0>
0

>  <SCORE.INTRA.REPUL>
0

>  <SCORE.INTRA.REPUL.0>
0

>  <SCORE.INTRA.VDW>
0.64367

>  <SCORE.INTRA.VDW.0>
-1.60828

>  <SCORE.INTRA.norm>
-0.123216

>  <SCORE.RESTR>
0.00800852

>  <SCORE.RESTR.CAVITY>
0.00800852

>  <SCORE.RESTR.norm>
0.000400426

>  <SCORE.SYSTEM>
-9.79003

>  <SCORE.SYSTEM.CONST>
0

>  <SCORE.SYSTEM.DIHEDRAL>
6.72752

>  <SCORE.SYSTEM.POLAR>
-4.24549

>  <SCORE.SYSTEM.REPUL>
0.789346

>  <SCORE.SYSTEM.VDW>
-2.66586

>  <SCORE.SYSTEM.norm>
-0.489501

>  <SCORE.heavy>
20

>  <SCORE.norm>
-1.61289

$$$$

  rDOCK(R)          3D
libRbt.so/2013.1/901 2013/11/27
 25 26  0  0  0  0  0  0  0  0999 V2000
    1.8177   10.5013   13.9179 C   0  0  0  0  0  0
    0.8382   11.2722   14.5723 O   0  0  0  0  0  0
    3.2069   11.0407   14.1166 C   0  0  0  0  0  0
    4.0744    9.7800   14.1281 C   0  0  0  0  0  0
    4.9042    9.7075   12.9031 N   0  0  0  0  0  0
    5.0653   10.8192   12.1153 C   0  0  0  0  0  0
    5.8225   10.7675   10.9481 C   0  0  0  0  0  0
    6.4262    9.5620   10.5965 C   0  0  0  0  0  0
    7.1359    9.4591    9.5180 N   0  0  0  0  0  0
    6.2739    8.4835   11.4014 N   0  0  0  0  0  0
    5.5388    8.5372   12.5434 C   0  0  0  0  0  0
    5.4669    7.3797   13.3236 O   0  0  0  0  0  0
    3.2442    8.6378   14.2533 O   0  0  0  0  0  0
    1.9265    9.0845   14.4720 C   0  0  0  0  0  0
    0.9365    8.1194   13.8043 C   0  0  0  0  0  0
   -0.3948    8.4734   14.1210 O   0  0  0  0  0  0
   -1.4885    7.4623   13.2842 P   0  0  0  0  0  0
   -0.7654    6.2350   12.7749 O   0  0  0  0  0  0
   -2.7718    6.9982   14.2886 O   0  0  0  0  0  0
   -2.1129    8.3148   11.9638 O   0  0  0  0  0  0
    0.8648   12.1925   14.2003 H   0  0  0  0  0  0
    7.2856   10.2627    8.8663 H   0  0  0  0  0  0
    4.8348    7.2588   14.1026 H   0  0  0  0  0  0
   -2.8183    7.6950   14.9911 H   0  0  0  0  0  0
   -1.3257    8.7556   11.5553 H   0  0  0  0  0  0
  1  2  1  0  0  0
  1  3  1  0  0  0
  3  4  1  0  0  0
  4  5  1  0  0  0
  5  6  1  0  0  0
  6  7  2  0  0  0
  7  8  1  0  0  0
  8  9  2  0  0  0
  8 10  1  0  0  0
 10 11  2  0  0  0
 11 12  1  0  0  0
  4 13  1  0  0  0
 13 14  1  0  0  0
 14 15  1  0  0  0
 15 16  1  0  0  0
 16 17  1  0  0  0
 17 18  2  0  0  0
 17 19  1  0  0  0
 17 20  1  0  0  0
 14  1  1  0  0  0
 11  5  1  0  0  0
  2 21  1  0  0  0
  9 22  1  0  0  0
 12 23  1  0  0  0
 19 24  1  0  0  0
 20 25  1  0  0  0
M  END
>  <CHROM.0>
170.20183443,-176.10364419,-53.93086476,-178.21512030,43.83419382,-176.22304031
-149.88163775,-2.49795134,-59.18463959,171.61333665,15.28974102,-47.62367648

>  <CHROM.1>
60.68294224,15.33156252,10.95601158,-65.98506405,175.98186065,16.69863130
23.34020424,44.71092100,2.34621676,8.89125144,13.01271656,3.10898090,-0.33768330
-2.48807404

>  <Name>

>  <RI>
3.49024e+07

>  <Rbt.Current_Directory>
/extra/banzai2/j5wagner/CELPP/2016_10_17_rdock_implementation/normal_run/tutorialVideo/tutorial_rdock_implementation/full_week_run/4-docking/5wrn/hiTanimoto_3hb8_docking

>  <Rbt.Executable>
rbdock ($Id: //depot/dev/client3/rdock/2013.1/src/exe/rbdock.cxx#4 $)

>  <Rbt.Library>
libRbt.so (2013.1, Build901 2013/11/27)

>  <Rbt.Parameter_File>
/home/j5wagner/env_00/source/rDock/rDock_2013.1_src//data/scripts/dock.prm

>  <Rbt.Receptor>
/extra/banzai2/j5wagner/CELPP/2016_10_17_rdock_implementation/normal_run/tutorialVideo/tutorial_rdock_implementation/full_week_run/4-docking/5wrn/hiTanimoto_3hb8_tech_prep/rDockGridGenInput.prm

>  <SCORE>
-32.3269

>  <SCORE.INTER>
-20.719

>  <SCORE.INTER.CONST>
1

>  <SCORE.INTER.POLAR>
-3.15487

>  <SCORE.INTER.REPUL>
0.140901

>  <SCORE.INTER.ROT>
4

>  <SCORE.INTER.VDW>
-20.097

>  <SCORE.INTER.norm>
-1.03595

>  <SCORE.INTRA>
0.697813

>  <SCORE.INTRA.DIHEDRAL>
-2.26902

>  <SCORE.INTRA.DIHEDRAL.0>
8.98184

>  <SCORE.INTRA.POLAR>
-0.332642

>  <SCORE.INTRA.POLAR.0>
0

>  <SCORE.INTRA.REPUL>
0

>  <SCORE.INTRA.REPUL.0>
0

>  <SCORE.INTRA.VDW>
2.96331

>  <SCORE.INTRA.VDW.0>
-1.60828

>  <SCORE.INTRA.norm>
0.0348906

>  <SCORE.RESTR>
0.769437

>  <SCORE.RESTR.CAVITY>
0.769437

>  <SCORE.RESTR.norm>
0.0384718

>  <SCORE.SYSTEM>
-13.0752

>  <SCORE.SYSTEM.CONST>
0

>  <SCORE.SYSTEM.DIHEDRAL>
7.27233

>  <SCORE.SYSTEM.POLAR>
-4.24498

>  <SCORE.SYSTEM.REPUL>
0.117211

>  <SCORE.SYSTEM.VDW>
-2.86445

>  <SCORE.SYSTEM.norm>
-0.653758

>  <SCORE.heavy>
20

>  <SCORE.norm>
-1.61635

$$$$

  rDOCK(R)          3D
libRbt.so/2013.1/901 2013/11/27
 25 26  0  0  0  0  0  0  0  0999 V2000
    4.3815    5.1807   14.3444 C   0  0  0  0  0  0
    3.7225    3.9787   14.6651 O   0  0  0  0  0  0
    3.5176    6.3912   14.5661 C   0  0  0  0  0  0
    4.5211    7.4645   14.9942 C   0  0  0  0  0  0
    4.6742    8.4870   13.9334 N   0  0  0  0  0  0
    5.9239    8.8204   13.4754 C   0  0  0  0  0  0
    6.0922    9.7945   12.4950 C   0  0  0  0  0  0
    4.9617   10.4222   11.9761 C   0  0  0  0  0  0
    5.0638   11.3389   11.0670 N   0  0  0  0  0  0
    3.7363   10.0603   12.4252 N   0  0  0  0  0  0
    3.5735    9.1053   13.3785 C   0  0  0  0  0  0
    2.2671    8.7794   13.7538 O   0  0  0  0  0  0
    5.7629    6.8533   15.3003 O   0  0  0  0  0  0
    5.5825    5.4577   15.2428 C   0  0  0  0  0  0
    6.8650    4.7921   14.7237 C   0  0  0  0  0  0
    7.7810    4.5842   15.7800 O   0  0  0  0  0  0
    9.0238    3.5231   15.2821 P   0  0  0  0  0  0
    8.4266    2.3396   14.5533 O   0  0  0  0  0  0
   10.1308    4.3191   14.2759 O   0  0  0  0  0  0
    9.8407    2.9638   16.6532 O   0  0  0  0  0  0
    4.3607    3.2287   14.5373 H   0  0  0  0  0  0
    5.9861   11.6507   10.6859 H   0  0  0  0  0  0
    1.7846    7.9414   13.4602 H   0  0  0  0  0  0
   10.5319    3.6077   13.7154 H   0  0  0  0  0  0
    9.2040    2.3419   17.0877 H   0  0  0  0  0  0
  1  2  1  0  0  0
  1  3  1  0  0  0
  3  4  1  0  0  0
  4  5  1  0  0  0
  5  6  1  0  0  0
  6  7  2  0  0  0
  7  8  1  0  0  0
  8  9  2  0  0  0
  8 10  1  0  0  0
 10 11  2  0  0  0
 11 12  1  0  0  0
  4 13  1  0  0  0
 13 14  1  0  0  0
 14 15  1  0  0  0
 15 16  1  0  0  0
 16 17  1  0  0  0
 17 18  2  0  0  0
 17 19  1  0  0  0
 17 20  1  0  0  0
 14  1  1  0  0  0
 11  5  1  0  0  0
  2 21  1  0  0  0
  9 22  1  0  0  0
 12 23  1  0  0  0
 19 24  1  0  0  0
 20 25  1  0  0  0
M  END
>  <CHROM.0>
168.13582742,-176.35488925,-56.47332077,-61.02111917,-173.58057166,63.90373758
-138.32942730,-161.57027102,-60.65905954,-70.04389113,27.93339522,-172.50779301

>  <CHROM.1>
-177.35204021,-127.93646344,-75.65415399,-155.83942942,166.44661601,-45.60536769
-154.23847940,71.77766783,6.05600223,6.40376088,14.26146816,0.96207638,-0.11196300
2.67122524

>  <Name>

>  <RI>
3.49024e+07

>  <Rbt.Current_Directory>
/extra/banzai2/j5wagner/CELPP/2016_10_17_rdock_implementation/normal_run/tutorialVideo/tutorial_rdock_implementation/full_week_run/4-docking/5wrn/hiTanimoto_3hb8_docking

>  <Rbt.Executable>
rbdock ($Id: //depot/dev/client3/rdock/2013.1/src/exe/rbdock.cxx#4 $)

>  <Rbt.Library>
libRbt.so (2013.1, Build901 2013/11/27)

>  <Rbt.Parameter_File>
/home/j5wagner/env_00/source/rDock/rDock_2013.1_src//data/scripts/dock.prm

>  <Rbt.Receptor>
/extra/banzai2/j5wagner/CELPP/2016_10_17_rdock_implementation/normal_run/tutorialVideo/tutorial_rdock_implementation/full_week_run/4-docking/5wrn/hiTanimoto_3hb8_tech_prep/rDockGridGenInput.prm

>  <SCORE>
-33.7174

>  <SCORE.INTER>
-22.6014

>  <SCORE.INTER.CONST>
1

>  <SCORE.INTER.POLAR>
-3.19361

>  <SCORE.INTER.REPUL>
0.195001

>  <SCORE.INTER.ROT>
4

>  <SCORE.INTER.VDW>
-22.1181

>  <SCORE.INTER.norm>
-1.13007

>  <SCORE.INTRA>
2.62535

>  <SCORE.INTRA.DIHEDRAL>
2.29759

>  <SCORE.INTRA.DIHEDRAL.0>
8.98184

>  <SCORE.INTRA.POLAR>
0

>  <SCORE.INTRA.POLAR.0>
0

>  <SCORE.INTRA.REPUL>
0

>  <SCORE.INTRA.REPUL.0>
0

>  <SCORE.INTRA.VDW>
1.47655

>  <SCORE.INTRA.VDW.0>
-1.60828

>  <SCORE.INTRA.norm>
0.131267

>  <SCORE.RESTR>
0

>  <SCORE.RESTR.CAVITY>
0

>  <SCORE.RESTR.norm>
0

>  <SCORE.SYSTEM>
-13.7414

>  <SCORE.SYSTEM.CONST>
0

>  <SCORE.SYSTEM.DIHEDRAL>
4.83187

>  <SCORE.SYSTEM.POLAR>
-4.24748

>  <SCORE.SYSTEM.REPUL>
0.00790384

>  <SCORE.SYSTEM.VDW>
-1.7554

>  <SCORE.SYSTEM.norm>
-0.687069

>  <SCORE.heavy>
20

>  <SCORE.norm>
-1.68587

$$$$

  rDOCK(R)          3D
libRbt.so/2013.1/901 2013/11/27
 25 26  0  0  0  0  0  0  0  0999 V2000
    5.0957    9.4208   14.7058 C   0  0  0  0  0  0
    5.4523    9.6399   16.0499 O   0  0  0  0  0  0
    6.2074    9.7550   13.7503 C   0  0  0  0  0  0
    6.0115    8.7452   12.6172 C   0  0  0  0  0  0
    5.5353    9.4249   11.3902 N   0  0  0  0  0  0
    4.4848   10.3051   11.4557 C   0  0  0  0  0  0
    4.0069   10.9379   10.3113 C   0  0  0  0  0  0
    4.6243   10.6681    9.0917 C   0  0  0  0  0  0
    4.2146   11.2258    7.9970 N   0  0  0  0  0  0
    5.6752    9.8146    9.0539 N   0  0  0  0  0  0
    6.1439    9.2019   10.1729 C   0  0  0  0  0  0
    7.2530    8.3623   10.0366 O   0  0  0  0  0  0
    5.1014    7.7410   13.0330 O   0  0  0  0  0  0
    4.8184    7.9534   14.3963 C   0  0  0  0  0  0
    3.3634    7.5604   14.6890 C   0  0  0  0  0  0
    3.0703    6.2909   14.1406 O   0  0  0  0  0  0
    4.0079    5.0867   14.9083 P   0  0  0  0  0  0
    4.3016    5.4967   16.3345 O   0  0  0  0  0  0
    3.2052    3.5945   14.8927 O   0  0  0  0  0  0
    5.4706    4.9254   14.0748 O   0  0  0  0  0  0
    4.6638    9.4395   16.6191 H   0  0  0  0  0  0
    3.4103   11.8933    7.9745 H   0  0  0  0  0  0
    8.0027    8.2983   10.7111 H   0  0  0  0  0  0
    3.8949    2.9249   15.1315 H   0  0  0  0  0  0
    6.0680    5.6009   14.4843 H   0  0  0  0  0  0
  1  2  1  0  0  0
  1  3  1  0  0  0
  3  4  1  0  0  0
  4  5  1  0  0  0
  5  6  1  0  0  0
  6  7  2  0  0  0
  7  8  1  0  0  0
  8  9  2  0  0  0
  8 10  1  0  0  0
 10 11  2  0  0  0
 11 12  1  0  0  0
  4 13  1  0  0  0
 13 14  1  0  0  0
 14 15  1  0  0  0
 15 16  1  0  0  0
 16 17  1  0  0  0
 17 18  2  0  0  0
 17 19  1  0  0  0
 17 20  1  0  0  0
 14  1  1  0  0  0
 11  5  1  0  0  0
  2 21  1  0  0  0
  9 22  1  0  0  0
 12 23  1  0  0  0
 19 24  1  0  0  0
 20 25  1  0  0  0
M  END
>  <CHROM.0>
167.83127895,-177.41157011,-58.79588372,-173.26447361,32.69378562,-179.49056910
-158.03757805,176.70219032,-60.32327104,60.39090596,-177.09278112,-161.24536047

>  <CHROM.1>
177.48303645,-48.51425301,-38.03295644,167.95566674,64.68495895,29.78028771
165.64411639,87.18222166,4.84885386,8.00019346,12.88844568,-2.38061443,-1.35602021
-1.64593630

>  <Name>

>  <RI>
3.49024e+07

>  <Rbt.Current_Directory>
/extra/banzai2/j5wagner/CELPP/2016_10_17_rdock_implementation/normal_run/tutorialVideo/tutorial_rdock_implementation/full_week_run/4-docking/5wrn/hiTanimoto_3hb8_docking

>  <Rbt.Executable>
rbdock ($Id: //depot/dev/client3/rdock/2013.1/src/exe/rbdock.cxx#4 $)

>  <Rbt.Library>
libRbt.so (2013.1, Build901 2013/11/27)

>  <Rbt.Parameter_File>
/home/j5wagner/env_00/source/rDock/rDock_2013.1_src//data/scripts/dock.prm

>  <Rbt.Receptor>
/extra/banzai2/j5wagner/CELPP/2016_10_17_rdock_implementation/normal_run/tutorialVideo/tutorial_rdock_implementation/full_week_run/4-docking/5wrn/hiTanimoto_3hb8_tech_prep/rDockGridGenInput.prm

>  <SCORE>
-20.5656

>  <SCORE.INTER>
-9.86081

>  <SCORE.INTER.CONST>
1

>  <SCORE.INTER.POLAR>
-2.67675

>  <SCORE.INTER.REPUL>
0

>  <SCORE.INTER.ROT>
4

>  <SCORE.INTER.VDW>
-10.1599

>  <SCORE.INTER.norm>
-0.493041

>  <SCORE.INTRA>
-0.0909348

>  <SCORE.INTRA.DIHEDRAL>
-1.56001

>  <SCORE.INTRA.DIHEDRAL.0>
8.98184

>  <SCORE.INTRA.POLAR>
0

>  <SCORE.INTRA.POLAR.0>
0

>  <SCORE.INTRA.REPUL>
0

>  <SCORE.INTRA.REPUL.0>
0

>  <SCORE.INTRA.VDW>
0.689072

>  <SCORE.INTRA.VDW.0>
-1.60828

>  <SCORE.INTRA.norm>
-0.00454674

>  <SCORE.RESTR>
0

>  <SCORE.RESTR.CAVITY>
0

>  <SCORE.RESTR.norm>
0

>  <SCORE.SYSTEM>
-10.6138

>  <SCORE.SYSTEM.CONST>
0

>  <SCORE.SYSTEM.DIHEDRAL>
3.13045

>  <SCORE.SYSTEM.POLAR>
-4.24691

>  <SCORE.SYSTEM.REPUL>
0.85155

>  <SCORE.SYSTEM.VDW>
-1.9973

>  <SCORE.SYSTEM.norm>
-0.53069

>  <SCORE.heavy>
20

>  <SCORE.norm>
-1.02828

$$$$

  rDOCK(R)          3D
libRbt.so/2013.1/901 2013/11/27
 25 26  0  0  0  0  0  0  0  0999 V2000
    4.4730    5.2809   14.3349 C   0  0  0  0  0  0
    4.0875    3.9299   14.4246 O   0  0  0  0  0  0
    3.3062    6.2237   14.4376 C   0  0  0  0  0  0
    3.9020    7.4433   15.1443 C   0  0  0  0  0  0
    4.0002    8.5896   14.2112 N   0  0  0  0  0  0
    5.2247    9.1362   13.9203 C   0  0  0  0  0  0
    5.3376   10.2277   13.0635 C   0  0  0  0  0  0
    4.1791   10.7530   12.4947 C   0  0  0  0  0  0
    4.2288   11.7712   11.6960 N   0  0  0  0  0  0
    2.9836   10.1827   12.7766 N   0  0  0  0  0  0
    2.8757    9.1136   13.6090 C   0  0  0  0  0  0
    1.6017    8.5761   13.8129 O   0  0  0  0  0  0
    5.1715    7.1058   15.6772 O   0  0  0  0  0  0
    5.3630    5.7228   15.4920 C   0  0  0  0  0  0
    6.8482    5.4380   15.2271 C   0  0  0  0  0  0
    7.0389    4.0854   14.8635 O   0  0  0  0  0  0
    8.6848    3.6577   15.0267 P   0  0  0  0  0  0
    9.1277    3.8593   16.4591 O   0  0  0  0  0  0
    8.9389    2.0464   14.5677 O   0  0  0  0  0  0
    9.6073    4.6600   14.0244 O   0  0  0  0  0  0
    3.6974    3.7752   15.3245 H   0  0  0  0  0  0
    5.1268   12.2442   11.4452 H   0  0  0  0  0  0
    1.3663    7.9434   14.5648 H   0  0  0  0  0  0
    9.9127    1.8968   14.6694 H   0  0  0  0  0  0
    9.8246    5.4454   14.5871 H   0  0  0  0  0  0
  1  2  1  0  0  0
  1  3  1  0  0  0
  3  4  1  0  0  0
  4  5  1  0  0  0
  5  6  1  0  0  0
  6  7  2  0  0  0
  7  8  1  0  0  0
  8  9  2  0  0  0
  8 10  1  0  0  0
 10 11  2  0  0  0
 11 12  1  0  0  0
  4 13  1  0  0  0
 13 14  1  0  0  0
 14 15  1  0  0  0
 15 16  1  0  0  0
 16 17  1  0  0  0
 17 18  2  0  0  0
 17 19  1  0  0  0
 17 20  1  0  0  0
 14  1  1  0  0  0
 11  5  1  0  0  0
  2 21  1  0  0  0
  9 22  1  0  0  0
 12 23  1  0  0  0
 19 24  1  0  0  0
 20 25  1  0  0  0
M  END
>  <CHROM.0>
169.68607195,-176.16425303,-58.82557522,-60.39862570,-176.47641817,-58.43773878
126.43598794,-179.44993618,-59.32052242,63.09492188,7.16259358,56.37491193

>  <CHROM.1>
-63.54064038,-118.84403743,16.05941500,-52.45602442,-163.08323054,59.46604005
178.46302796,89.12923833,5.62795380,6.56020189,14.34258467,0.91819948,-0.09764086
2.77413939

>  <Name>

>  <RI>
3.49024e+07

>  <Rbt.Current_Directory>
/extra/banzai2/j5wagner/CELPP/2016_10_17_rdock_implementation/normal_run/tutorialVideo/tutorial_rdock_implementation/full_week_run/4-docking/5wrn/hiTanimoto_3hb8_docking

>  <Rbt.Executable>
rbdock ($Id: //depot/dev/client3/rdock/2013.1/src/exe/rbdock.cxx#4 $)

>  <Rbt.Library>
libRbt.so (2013.1, Build901 2013/11/27)

>  <Rbt.Parameter_File>
/home/j5wagner/env_00/source/rDock/rDock_2013.1_src//data/scripts/dock.prm

>  <Rbt.Receptor>
/extra/banzai2/j5wagner/CELPP/2016_10_17_rdock_implementation/normal_run/tutorialVideo/tutorial_rdock_implementation/full_week_run/4-docking/5wrn/hiTanimoto_3hb8_tech_prep/rDockGridGenInput.prm

>  <SCORE>
-15.0608

>  <SCORE.INTER>
-18.5929

>  <SCORE.INTER.CONST>
1

>  <SCORE.INTER.POLAR>
-2.26175

>  <SCORE.INTER.REPUL>
0.147555

>  <SCORE.INTER.ROT>
4

>  <SCORE.INTER.VDW>
-21.0407

>  <SCORE.INTER.norm>
-0.929645

>  <SCORE.INTRA>
-0.489972

>  <SCORE.INTRA.DIHEDRAL>
-3.4041

>  <SCORE.INTRA.DIHEDRAL.0>
8.98184

>  <SCORE.INTRA.POLAR>
0

>  <SCORE.INTRA.POLAR.0>
0

>  <SCORE.INTRA.REPUL>
0

>  <SCORE.INTRA.REPUL.0>
0

>  <SCORE.INTRA.VDW>
1.21208

>  <SCORE.INTRA.VDW.0>
-1.60828

>  <SCORE.INTRA.norm>
-0.0244986

>  <SCORE.RESTR>
0

>  <SCORE.RESTR.CAVITY>
0

>  <SCORE.RESTR.norm>
0

>  <SCORE.SYSTEM>
4.02205

>  <SCORE.SYSTEM.CONST>
0

>  <SCORE.SYSTEM.DIHEDRAL>
6.89426

>  <SCORE.SYSTEM.POLAR>
-4.15764

>  <SCORE.SYSTEM.REPUL>
0.731396

>  <SCORE.SYSTEM.VDW>
11.0539

>  <SCORE.SYSTEM.norm>
0.201102

>  <SCORE.heavy>
20

>  <SCORE.norm>
-0.753041

$$$$

  rDOCK(R)          3D
libRbt.so/2013.1/901 2013/11/27
 25 26  0  0  0  0  0  0  0  0999 V2000
    2.9877    9.5280   13.2434 C   0  0  0  0  0  0
    1.6697    9.7319   13.6942 O   0  0  0  0  0  0
    3.5000   10.6737   12.4154 C   0  0  0  0  0  0
    4.9940   10.7045   12.7455 C   0  0  0  0  0  0
    5.7942   10.2636   11.5794 N   0  0  0  0  0  0
    6.4945    9.0849   11.6325 C   0  0  0  0  0  0
    7.2706    8.6626   10.5565 C   0  0  0  0  0  0
    7.3165    9.4579    9.4133 C   0  0  0  0  0  0
    8.0278    9.1134    8.3873 N   0  0  0  0  0  0
    6.5981   10.6053    9.3734 N   0  0  0  0  0  0
    5.8366   11.0132   10.4228 C   0  0  0  0  0  0
    5.1069   12.1960   10.2736 O   0  0  0  0  0  0
    5.2436    9.8878   13.8769 O   0  0  0  0  0  0
    4.0007    9.4585   14.3815 C   0  0  0  0  0  0
    4.1378    8.0407   14.9545 C   0  0  0  0  0  0
    2.8663    7.4954   15.2443 O   0  0  0  0  0  0
    3.0237    5.8740   15.7588 P   0  0  0  0  0  0
    3.9296    5.8054   16.9685 O   0  0  0  0  0  0
    1.5109    5.2098   16.1349 O   0  0  0  0  0  0
    3.7165    4.9728   14.5067 O   0  0  0  0  0  0
    1.4265    8.9824   14.2984 H   0  0  0  0  0  0
    8.5967    8.2366    8.3680 H   0  0  0  0  0  0
    4.5662   12.6261   11.0110 H   0  0  0  0  0  0
    0.9109    5.4952   15.4003 H   0  0  0  0  0  0
    4.6429    5.3156   14.4342 H   0  0  0  0  0  0
  1  2  1  0  0  0
  1  3  1  0  0  0
  3  4  1  0  0  0
  4  5  1  0  0  0
  5  6  1  0  0  0
  6  7  2  0  0  0
  7  8  1  0  0  0
  8  9  2  0  0  0
  8 10  1  0  0  0
 10 11  2  0  0  0
 11 12  1  0  0  0
  4 13  1  0  0  0
 13 14  1  0  0  0
 14 15  1  0  0  0
 15 16  1  0  0  0
 16 17  1  0  0  0
 17 18  2  0  0  0
 17 19  1  0  0  0
 17 20  1  0  0  0
 14  1  1  0  0  0
 11  5  1  0  0  0
  2 21  1  0  0  0
  9 22  1  0  0  0
 12 23  1  0  0  0
 19 24  1  0  0  0
 20 25  1  0  0  0
M  END
>  <CHROM.0>
170.13115717,179.01724412,-54.14055597,-177.84077194,179.89826299,-58.43107756
-149.62100695,-2.59606588,77.67006318,61.59089078,-11.73005157,54.06807291

>  <CHROM.1>
-174.89530970,-112.74173225,5.33512261,-49.62005319,175.34538054,57.51359682
44.16361110,67.86024004,4.50839648,8.63804521,13.05612664,2.22364459,-0.71915675
2.67180814

>  <Name>

>  <RI>
3.49024e+07

>  <Rbt.Current_Directory>
/extra/banzai2/j5wagner/CELPP/2016_10_17_rdock_implementation/normal_run/tutorialVideo/tutorial_rdock_implementation/full_week_run/4-docking/5wrn/hiTanimoto_3hb8_docking

>  <Rbt.Executable>
rbdock ($Id: //depot/dev/client3/rdock/2013.1/src/exe/rbdock.cxx#4 $)

>  <Rbt.Library>
libRbt.so (2013.1, Build901 2013/11/27)

>  <Rbt.Parameter_File>
/home/j5wagner/env_00/source/rDock/rDock_2013.1_src//data/scripts/dock.prm

>  <Rbt.Receptor>
/extra/banzai2/j5wagner/CELPP/2016_10_17_rdock_implementation/normal_run/tutorialVideo/tutorial_rdock_implementation/full_week_run/4-docking/5wrn/hiTanimoto_3hb8_tech_prep/rDockGridGenInput.prm

>  <SCORE>
-20.6939

>  <SCORE.INTER>
-9.2038

>  <SCORE.INTER.CONST>
1

>  <SCORE.INTER.POLAR>
-0.783342

>  <SCORE.INTER.REPUL>
0

>  <SCORE.INTER.ROT>
4

>  <SCORE.INTER.VDW>
-15.9404

>  <SCORE.INTER.norm>
-0.46019

>  <SCORE.INTRA>
-3.14131

>  <SCORE.INTRA.DIHEDRAL>
-5.38061

>  <SCORE.INTRA.DIHEDRAL.0>
8.98184

>  <SCORE.INTRA.POLAR>
-0.336421

>  <SCORE.INTRA.POLAR.0>
0

>  <SCORE.INTRA.REPUL>
0

>  <SCORE.INTRA.REPUL.0>
0

>  <SCORE.INTRA.VDW>
0.692824

>  <SCORE.INTRA.VDW.0>
-1.60828

>  <SCORE.INTRA.norm>
-0.157066

>  <SCORE.RESTR>
0.155919

>  <SCORE.RESTR.CAVITY>
0.155919

>  <SCORE.RESTR.norm>
0.00779594

>  <SCORE.SYSTEM>
-8.50471

>  <SCORE.SYSTEM.CONST>
0

>  <SCORE.SYSTEM.DIHEDRAL>
6.4179

>  <SCORE.SYSTEM.POLAR>
-4.19798

>  <SCORE.SYSTEM.REPUL>
0.758078

>  <SCORE.SYSTEM.VDW>
-1.23091

>  <SCORE.SYSTEM.norm>
-0.425236

>  <SCORE.heavy>
20

>  <SCORE.norm>
-1.0347

$$$$

  rDOCK(R)          3D
libRbt.so/2013.1/901 2013/11/27
 25 26  0  0  0  0  0  0  0  0999 V2000
    4.5268   10.9018   14.3558 C   0  0  0  0  0  0
    4.3932   12.2480   14.7456 O   0  0  0  0  0  0
    4.0784    9.9429   15.4235 C   0  0  0  0  0  0
    3.5065    8.7700   14.6238 C   0  0  0  0  0  0
    4.3843    7.5825   14.7410 N   0  0  0  0  0  0
    5.1896    7.4289   15.8412 C   0  0  0  0  0  0
    6.0385    6.3319   15.9611 C   0  0  0  0  0  0
    6.0491    5.3811   14.9427 C   0  0  0  0  0  0
    6.8245    4.3456   15.0028 N   0  0  0  0  0  0
    5.2283    5.5402   13.8772 N   0  0  0  0  0  0
    4.3962    6.6090   13.7644 C   0  0  0  0  0  0
    3.5646    6.6679   12.6425 O   0  0  0  0  0  0
    3.3455    9.1569   13.2696 O   0  0  0  0  0  0
    3.6316   10.5329   13.1774 C   0  0  0  0  0  0
    4.2941   10.8331   11.8253 C   0  0  0  0  0  0
    5.4387   10.0243   11.6408 O   0  0  0  0  0  0
    6.1296   10.3218   10.1070 P   0  0  0  0  0  0
    6.6474   11.7419   10.0442 O   0  0  0  0  0  0
    7.3910    9.2353    9.7914 O   0  0  0  0  0  0
    4.9345   10.1243    8.9267 O   0  0  0  0  0  0
    4.9043   12.8106   14.1068 H   0  0  0  0  0  0
    7.4734    4.1764   15.8049 H   0  0  0  0  0  0
    2.7826    7.3010   12.5484 H   0  0  0  0  0  0
    6.9613    8.3443    9.7415 H   0  0  0  0  0  0
    4.9869    9.1679    8.6748 H   0  0  0  0  0  0
  1  2  1  0  0  0
  1  3  1  0  0  0
  3  4  1  0  0  0
  4  5  1  0  0  0
  5  6  1  0  0  0
  6  7  2  0  0  0
  7  8  1  0  0  0
  8  9  2  0  0  0
  8 10  1  0  0  0
 10 11  2  0  0  0
 11 12  1  0  0  0
  4 13  1  0  0  0
 13 14  1  0  0  0
 14 15  1  0  0  0
 15 16  1  0  0  0
 16 17  1  0  0  0
 17 18  2  0  0  0
 17 19  1  0  0  0
 17 20  1  0  0  0
 14  1  1  0  0  0
 11  5  1  0  0  0
  2 21  1  0  0  0
  9 22  1  0  0  0
 12 23  1  0  0  0
 19 24  1  0  0  0
 20 25  1  0  0  0
M  END
>  <CHROM.0>
44.98850929,63.65677743,-52.48888128,-61.96929563,55.80288039,178.51315298
-128.54712350,-164.59916891,-59.37660420,-169.86558724,17.33826098,62.26855778

>  <CHROM.1>
166.16889237,25.92492278,-12.73065176,64.70139331,177.69375665,65.11897473
65.01368055,-90.03863841,5.07737265,8.85896107,12.93035758,1.42163354,1.07710139
-0.66658816

>  <Name>

>  <RI>
3.49024e+07

>  <Rbt.Current_Directory>
/extra/banzai2/j5wagner/CELPP/2016_10_17_rdock_implementation/normal_run/tutorialVideo/tutorial_rdock_implementation/full_week_run/4-docking/5wrn/hiTanimoto_3hb8_docking

>  <Rbt.Executable>
rbdock ($Id: //depot/dev/client3/rdock/2013.1/src/exe/rbdock.cxx#4 $)

>  <Rbt.Library>
libRbt.so (2013.1, Build901 2013/11/27)

>  <Rbt.Parameter_File>
/home/j5wagner/env_00/source/rDock/rDock_2013.1_src//data/scripts/dock.prm

>  <Rbt.Receptor>
/extra/banzai2/j5wagner/CELPP/2016_10_17_rdock_implementation/normal_run/tutorialVideo/tutorial_rdock_implementation/full_week_run/4-docking/5wrn/hiTanimoto_3hb8_tech_prep/rDockGridGenInput.prm

>  <SCORE>
-21.6467

>  <SCORE.INTER>
-13.608

>  <SCORE.INTER.CONST>
1

>  <SCORE.INTER.POLAR>
-2.42494

>  <SCORE.INTER.REPUL>
0

>  <SCORE.INTER.ROT>
4

>  <SCORE.INTER.VDW>
-14.7632

>  <SCORE.INTER.norm>
-0.680398

>  <SCORE.INTRA>
-0.85023

>  <SCORE.INTRA.DIHEDRAL>
-3.94515

>  <SCORE.INTRA.DIHEDRAL.0>
8.98184

>  <SCORE.INTRA.POLAR>
-0.171922

>  <SCORE.INTRA.POLAR.0>
0

>  <SCORE.INTRA.REPUL>
0

>  <SCORE.INTRA.REPUL.0>
0

>  <SCORE.INTRA.VDW>
1.70688

>  <SCORE.INTRA.VDW.0>
-1.60828

>  <SCORE.INTRA.norm>
-0.0425115

>  <SCORE.RESTR>
0

>  <SCORE.RESTR.CAVITY>
0

>  <SCORE.RESTR.norm>
0

>  <SCORE.SYSTEM>
-7.18848

>  <SCORE.SYSTEM.CONST>
0

>  <SCORE.SYSTEM.DIHEDRAL>
13.9642

>  <SCORE.SYSTEM.POLAR>
-3.20838

>  <SCORE.SYSTEM.REPUL>
0.0290978

>  <SCORE.SYSTEM.VDW>
-3.40759

>  <SCORE.SYSTEM.norm>
-0.359424

>  <SCORE.heavy>
20

>  <SCORE.norm>
-1.08233

$$$$

  rDOCK(R)          3D
libRbt.so/2013.1/901 2013/11/27
 25 26  0  0  0  0  0  0  0  0999 V2000
    3.7718    7.6912   15.6639 C   0  0  0  0  0  0
    4.0356    7.0195   16.8727 O   0  0  0  0  0  0
    4.9987    7.8476   14.8090 C   0  0  0  0  0  0
    4.4459    7.7672   13.3842 C   0  0  0  0  0  0
    4.5239    9.0890   12.7199 N   0  0  0  0  0  0
    5.4836    9.3242   11.7679 C   0  0  0  0  0  0
    5.5889   10.5660   11.1472 C   0  0  0  0  0  0
    4.6907   11.5695   11.5044 C   0  0  0  0  0  0
    4.7495   12.7438   10.9613 N   0  0  0  0  0  0
    3.7361   11.3080   12.4287 N   0  0  0  0  0  0
    3.6313   10.0934   13.0298 C   0  0  0  0  0  0
    2.5933    9.9114   13.9480 O   0  0  0  0  0  0
    3.1115    7.2906   13.4226 O   0  0  0  0  0  0
    2.8238    6.9207   14.7508 C   0  0  0  0  0  0
    1.3489    7.2138   15.0606 C   0  0  0  0  0  0
    0.5166    6.7286   14.0261 O   0  0  0  0  0  0
   -0.6525    7.9029   13.6105 P   0  0  0  0  0  0
    0.0271    9.1120   13.0063 O   0  0  0  0  0  0
   -1.7812    7.2710   12.5161 O   0  0  0  0  0  0
   -1.4654    8.3792   15.0150 O   0  0  0  0  0  0
    4.6947    7.5530   17.3893 H   0  0  0  0  0  0
    5.4653   12.9937   10.2415 H   0  0  0  0  0  0
    1.6129    9.9100   13.7033 H   0  0  0  0  0  0
   -2.3927    8.0223   12.3093 H   0  0  0  0  0  0
   -2.2458    8.8951   14.6899 H   0  0  0  0  0  0
  1  2  1  0  0  0
  1  3  1  0  0  0
  3  4  1  0  0  0
  4  5  1  0  0  0
  5  6  1  0  0  0
  6  7  2  0  0  0
  7  8  1  0  0  0
  8  9  2  0  0  0
  8 10  1  0  0  0
 10 11  2  0  0  0
 11 12  1  0  0  0
  4 13  1  0  0  0
 13 14  1  0  0  0
 14 15  1  0  0  0
 15 16  1  0  0  0
 16 17  1  0  0  0
 17 18  2  0  0  0
 17 19  1  0  0  0
 17 20  1  0  0  0
 14  1  1  0  0  0
 11  5  1  0  0  0
  2 21  1  0  0  0
  9 22  1  0  0  0
 12 23  1  0  0  0
 19 24  1  0  0  0
 20 25  1  0  0  0
M  END
>  <CHROM.0>
170.13841406,61.02047238,-57.28041348,-176.58557459,172.92945957,-179.44615949
-145.63624601,-3.06558619,-59.59121407,60.94331670,175.75095388,178.83369707

>  <CHROM.1>
61.13741565,104.88858171,-112.96255234,167.03345156,-134.70859086,65.68845671
-178.02204462,-167.90132226,2.46968727,8.69091396,13.53931920,-2.55963775
-0.12623967,-0.77654291

>  <Name>

>  <RI>
3.49024e+07

>  <Rbt.Current_Directory>
/extra/banzai2/j5wagner/CELPP/2016_10_17_rdock_implementation/normal_run/tutorialVideo/tutorial_rdock_implementation/full_week_run/4-docking/5wrn/hiTanimoto_3hb8_docking

>  <Rbt.Executable>
rbdock ($Id: //depot/dev/client3/rdock/2013.1/src/exe/rbdock.cxx#4 $)

>  <Rbt.Library>
libRbt.so (2013.1, Build901 2013/11/27)

>  <Rbt.Parameter_File>
/home/j5wagner/env_00/source/rDock/rDock_2013.1_src//data/scripts/dock.prm

>  <Rbt.Receptor>
/extra/banzai2/j5wagner/CELPP/2016_10_17_rdock_implementation/normal_run/tutorialVideo/tutorial_rdock_implementation/full_week_run/4-docking/5wrn/hiTanimoto_3hb8_tech_prep/rDockGridGenInput.prm

>  <SCORE>
-23.2614

>  <SCORE.INTER>
-9.4406

>  <SCORE.INTER.CONST>
1

>  <SCORE.INTER.POLAR>
-1.05707

>  <SCORE.INTER.REPUL>
0.00173746

>  <SCORE.INTER.ROT>
4

>  <SCORE.INTER.VDW>
-15.2553

>  <SCORE.INTER.norm>
-0.47203

>  <SCORE.INTRA>
-2.35747

>  <SCORE.INTRA.DIHEDRAL>
4.60247

>  <SCORE.INTRA.DIHEDRAL.0>
8.98184

>  <SCORE.INTRA.POLAR>
-1

>  <SCORE.INTRA.POLAR.0>
0

>  <SCORE.INTRA.REPUL>
0

>  <SCORE.INTRA.REPUL.0>
0

>  <SCORE.INTRA.VDW>
-1.2587

>  <SCORE.INTRA.VDW.0>
-1.60828

>  <SCORE.INTRA.norm>
-0.117873

>  <SCORE.RESTR>
0.312526

>  <SCORE.RESTR.CAVITY>
0.312526

>  <SCORE.RESTR.norm>
0.0156263

>  <SCORE.SYSTEM>
-11.7759

>  <SCORE.SYSTEM.CONST>
0

>  <SCORE.SYSTEM.DIHEDRAL>
1.92421

>  <SCORE.SYSTEM.POLAR>
-4.24566

>  <SCORE.SYSTEM.REPUL>
0.755554

>  <SCORE.SYSTEM.VDW>
-2.08048

>  <SCORE.SYSTEM.norm>
-0.588793

>  <SCORE.heavy>
20

>  <SCORE.norm>
-1.16307

$$$$

  rDOCK(R)          3D
libRbt.so/2013.1/901 2013/11/27
 25 26  0  0  0  0  0  0  0  0999 V2000
    3.1736    8.6138   13.4100 C   0  0  0  0  0  0
    2.7671    9.7904   12.7524 O   0  0  0  0  0  0
    4.3384    8.8399   14.3334 C   0  0  0  0  0  0
    4.0849    7.8446   15.4679 C   0  0  0  0  0  0
    5.0772    6.7454   15.4278 N   0  0  0  0  0  0
    5.0826    5.8623   14.3777 C   0  0  0  0  0  0
    5.9918    4.8089   14.3311 C   0  0  0  0  0  0
    6.9088    4.6716   15.3711 C   0  0  0  0  0  0
    7.7716    3.7058   15.3786 N   0  0  0  0  0  0
    6.9016    5.5689   16.3855 N   0  0  0  0  0  0
    6.0168    6.5999   16.4266 C   0  0  0  0  0  0
    6.1091    7.4915   17.4991 O   0  0  0  0  0  0
    2.7620    7.3449   15.3697 O   0  0  0  0  0  0
    2.1065    8.0583   14.3475 C   0  0  0  0  0  0
    1.1187    7.1325   13.6233 C   0  0  0  0  0  0
   -0.0019    6.8620   14.4415 O   0  0  0  0  0  0
   -1.4465    7.1334   13.5710 P   0  0  0  0  0  0
   -1.6902    5.9893   12.6117 O   0  0  0  0  0  0
   -2.7652    7.2924   14.6231 O   0  0  0  0  0  0
   -1.2840    8.5640   12.6837 O   0  0  0  0  0  0
    2.4854   10.4506   13.4385 H   0  0  0  0  0  0
    7.8194    2.9904   14.6178 H   0  0  0  0  0  0
    5.6779    8.4052   17.5163 H   0  0  0  0  0  0
   -2.5321    6.7485   15.4174 H   0  0  0  0  0  0
   -0.6682    9.1234   13.2211 H   0  0  0  0  0  0
  1  2  1  0  0  0
  1  3  1  0  0  0
  3  4  1  0  0  0
  4  5  1  0  0  0
  5  6  1  0  0  0
  6  7  2  0  0  0
  7  8  1  0  0  0
  8  9  2  0  0  0
  8 10  1  0  0  0
 10 11  2  0  0  0
 11 12  1  0  0  0
  4 13  1  0  0  0
 13 14  1  0  0  0
 14 15  1  0  0  0
 15 16  1  0  0  0
 16 17  1  0  0  0
 17 18  2  0  0  0
 17 19  1  0  0  0
 17 20  1  0  0  0
 14  1  1  0  0  0
 11  5  1  0  0  0
  2 21  1  0  0  0
  9 22  1  0  0  0
 12 23  1  0  0  0
 19 24  1  0  0  0
 20 25  1  0  0  0
M  END
>  <CHROM.0>
171.41332583,-59.04087288,-55.02677034,-176.24466840,46.57270139,-174.62417605
-128.91707253,0.31414451,-57.89248373,-68.72083842,0.89871457,-173.04086605

>  <CHROM.1>
-60.92086880,-66.31010981,-15.78681584,-167.82474065,130.20419908,76.13417878
-28.93524959,-30.02275442,2.72445769,7.01240787,14.53895789,-2.90960672,0.25908335
3.03462502

>  <Name>

>  <RI>
3.49024e+07

>  <Rbt.Current_Directory>
/extra/banzai2/j5wagner/CELPP/2016_10_17_rdock_implementation/normal_run/tutorialVideo/tutorial_rdock_implementation/full_week_run/4-docking/5wrn/hiTanimoto_3hb8_docking

>  <Rbt.Executable>
rbdock ($Id: //depot/dev/client3/rdock/2013.1/src/exe/rbdock.cxx#4 $)

>  <Rbt.Library>
libRbt.so (2013.1, Build901 2013/11/27)

>  <Rbt.Parameter_File>
/home/j5wagner/env_00/source/rDock/rDock_2013.1_src//data/scripts/dock.prm

>  <Rbt.Receptor>
/extra/banzai2/j5wagner/CELPP/2016_10_17_rdock_implementation/normal_run/tutorialVideo/tutorial_rdock_implementation/full_week_run/4-docking/5wrn/hiTanimoto_3hb8_tech_prep/rDockGridGenInput.prm

>  <SCORE>
-18.0784

>  <SCORE.INTER>
-6.91565

>  <SCORE.INTER.CONST>
1

>  <SCORE.INTER.POLAR>
-2.30333

>  <SCORE.INTER.REPUL>
0.332109

>  <SCORE.INTER.ROT>
4

>  <SCORE.INTER.VDW>
-10.1449

>  <SCORE.INTER.norm>
-0.345782

>  <SCORE.INTRA>
2.2264

>  <SCORE.INTRA.DIHEDRAL>
4.06385

>  <SCORE.INTRA.DIHEDRAL.0>
8.98184

>  <SCORE.INTRA.POLAR>
0

>  <SCORE.INTRA.POLAR.0>
0

>  <SCORE.INTRA.REPUL>
0

>  <SCORE.INTRA.REPUL.0>
0

>  <SCORE.INTRA.VDW>
0.194476

>  <SCORE.INTRA.VDW.0>
-1.60828

>  <SCORE.INTRA.norm>
0.11132

>  <SCORE.RESTR>
0

>  <SCORE.RESTR.CAVITY>
0

>  <SCORE.RESTR.norm>
0

>  <SCORE.SYSTEM>
-13.3891

>  <SCORE.SYSTEM.CONST>
0

>  <SCORE.SYSTEM.DIHEDRAL>
6.32745

>  <SCORE.SYSTEM.POLAR>
-4.23834

>  <SCORE.SYSTEM.REPUL>
0.0837529

>  <SCORE.SYSTEM.VDW>
-2.56125

>  <SCORE.SYSTEM.norm>
-0.669456

>  <SCORE.heavy>
20

>  <SCORE.norm>
-0.903918

$$$$

  rDOCK(R)          3D
libRbt.so/2013.1/901 2013/11/27
 25 26  0  0  0  0  0  0  0  0999 V2000
    5.1908    9.6377   15.2763 C   0  0  0  0  0  0
    5.8559   10.7552   15.8156 O   0  0  0  0  0  0
    4.3524    8.9161   16.2946 C   0  0  0  0  0  0
    3.1743    8.3915   15.4707 C   0  0  0  0  0  0
    3.2456    6.9177   15.3397 N   0  0  0  0  0  0
    4.3441    6.3312   14.7634 C   0  0  0  0  0  0
    4.4219    4.9496   14.6102 C   0  0  0  0  0  0
    3.3626    4.1665   15.0640 C   0  0  0  0  0  0
    3.3828    2.8775   14.9400 N   0  0  0  0  0  0
    2.2990    4.7645   15.6516 N   0  0  0  0  0  0
    2.2271    6.1131   15.8054 C   0  0  0  0  0  0
    1.1026    6.6331   16.4525 O   0  0  0  0  0  0
    3.1711    9.0196   14.1999 O   0  0  0  0  0  0
    4.1696   10.0129   14.2074 C   0  0  0  0  0  0
    4.7996   10.1223   12.8116 C   0  0  0  0  0  0
    3.7980   10.2290   11.8199 O   0  0  0  0  0  0
    4.4153   11.0288   10.4423 P   0  0  0  0  0  0
    5.7149   10.3835   10.0139 O   0  0  0  0  0  0
    3.3016   10.9811    9.1662 O   0  0  0  0  0  0
    4.7145   12.6445   10.8423 O   0  0  0  0  0  0
    5.1742   11.4269   16.0801 H   0  0  0  0  0  0
    4.1816    2.3691   14.4968 H   0  0  0  0  0  0
    0.3658    6.0685   16.8517 H   0  0  0  0  0  0
    3.8178   11.2353    8.3600 H   0  0  0  0  0  0
    5.4420   12.6059   11.5131 H   0  0  0  0  0  0
  1  2  1  0  0  0
  1  3  1  0  0  0
  3  4  1  0  0  0
  4  5  1  0  0  0
  5  6  1  0  0  0
  6  7  2  0  0  0
  7  8  1  0  0  0
  8  9  2  0  0  0
  8 10  1  0  0  0
 10 11  2  0  0  0
 11 12  1  0  0  0
  4 13  1  0  0  0
 13 14  1  0  0  0
 14 15  1  0  0  0
 15 16  1  0  0  0
 16 17  1  0  0  0
 17 18  2  0  0  0
 17 19  1  0  0  0
 17 20  1  0  0  0
 14  1  1  0  0  0
 11  5  1  0  0  0
  2 21  1  0  0  0
  9 22  1  0  0  0
 12 23  1  0  0  0
 19 24  1  0  0  0
 20 25  1  0  0  0
M  END
>  <CHROM.0>
167.09108207,61.89908589,-59.76125869,-177.71087215,-177.13823021,59.23067948
-146.94085122,-178.17876151,-58.69492736,63.83599089,-11.24719572,-51.28638471

>  <CHROM.1>
-65.75448905,-58.78799053,-176.33839673,169.36350100,154.55634685,50.70753733
-165.09092760,65.50381695,3.89414286,8.53629606,13.65312878,-0.78122036,1.28247151
1.68848602

>  <Name>

>  <RI>
3.49024e+07

>  <Rbt.Current_Directory>
/extra/banzai2/j5wagner/CELPP/2016_10_17_rdock_implementation/normal_run/tutorialVideo/tutorial_rdock_implementation/full_week_run/4-docking/5wrn/hiTanimoto_3hb8_docking

>  <Rbt.Executable>
rbdock ($Id: //depot/dev/client3/rdock/2013.1/src/exe/rbdock.cxx#4 $)

>  <Rbt.Library>
libRbt.so (2013.1, Build901 2013/11/27)

>  <Rbt.Parameter_File>
/home/j5wagner/env_00/source/rDock/rDock_2013.1_src//data/scripts/dock.prm

>  <Rbt.Receptor>
/extra/banzai2/j5wagner/CELPP/2016_10_17_rdock_implementation/normal_run/tutorialVideo/tutorial_rdock_implementation/full_week_run/4-docking/5wrn/hiTanimoto_3hb8_tech_prep/rDockGridGenInput.prm

>  <SCORE>
-29.1542

>  <SCORE.INTER>
-19.0852

>  <SCORE.INTER.CONST>
1

>  <SCORE.INTER.POLAR>
-2.93414

>  <SCORE.INTER.REPUL>
0

>  <SCORE.INTER.ROT>
4

>  <SCORE.INTER.VDW>
-18.5091

>  <SCORE.INTER.norm>
-0.954259

>  <SCORE.INTRA>
-0.770155

>  <SCORE.INTRA.DIHEDRAL>
-2.64685

>  <SCORE.INTRA.DIHEDRAL.0>
8.98184

>  <SCORE.INTRA.POLAR>
0

>  <SCORE.INTRA.POLAR.0>
0

>  <SCORE.INTRA.REPUL>
0

>  <SCORE.INTRA.REPUL.0>
0

>  <SCORE.INTRA.VDW>
0.55327

>  <SCORE.INTRA.VDW.0>
-1.60828

>  <SCORE.INTRA.norm>
-0.0385077

>  <SCORE.RESTR>
0.824454

>  <SCORE.RESTR.CAVITY>
0.824454

>  <SCORE.RESTR.norm>
0.0412227

>  <SCORE.SYSTEM>
-10.1233

>  <SCORE.SYSTEM.CONST>
0

>  <SCORE.SYSTEM.DIHEDRAL>
4.93068

>  <SCORE.SYSTEM.POLAR>
-4.24415

>  <SCORE.SYSTEM.REPUL>
0.757819

>  <SCORE.SYSTEM.VDW>
-1.94767

>  <SCORE.SYSTEM.norm>
-0.506167

>  <SCORE.heavy>
20

>  <SCORE.norm>
-1.45771

$$$$

  rDOCK(R)          3D
libRbt.so/2013.1/901 2013/11/27
 25 26  0  0  0  0  0  0  0  0999 V2000
    4.7566    6.2362   14.5166 C   0  0  0  0  0  0
    5.9742    5.5537   14.7006 O   0  0  0  0  0  0
    3.7027    5.8156   15.5029 C   0  0  0  0  0  0
    2.8982    7.0985   15.7248 C   0  0  0  0  0  0
    1.5519    6.9805   15.1181 N   0  0  0  0  0  0
    0.7107    5.9674   15.5036 C   0  0  0  0  0  0
   -0.5501    5.8248   14.9305 C   0  0  0  0  0  0
   -0.9497    6.7405   13.9593 C   0  0  0  0  0  0
   -2.1098    6.6488   13.3910 N   0  0  0  0  0  0
   -0.1130    7.7470   13.6114 N   0  0  0  0  0  0
    1.1154    7.8879   14.1760 C   0  0  0  0  0  0
    1.8932    8.9772   13.7734 O   0  0  0  0  0  0
    3.6090    8.1998   15.1851 O   0  0  0  0  0  0
    4.8721    7.7358   14.7694 C   0  0  0  0  0  0
    5.3190    8.5055   13.5183 C   0  0  0  0  0  0
    4.1995    9.0052   12.8146 O   0  0  0  0  0  0
    4.5331   10.5677   12.2098 P   0  0  0  0  0  0
    3.5292   10.9276   11.1368 O   0  0  0  0  0  0
    4.4850   11.7195   13.4517 O   0  0  0  0  0  0
    6.0815   10.5665   11.5297 O   0  0  0  0  0  0
    5.8233    4.5899   14.5158 H   0  0  0  0  0  0
   -2.7919    5.8925   13.6270 H   0  0  0  0  0  0
    2.8995    9.0175   13.8561 H   0  0  0  0  0  0
    5.3275   11.5933   13.9570 H   0  0  0  0  0  0
    6.6897   10.3933   12.2919 H   0  0  0  0  0  0
  1  2  1  0  0  0
  1  3  1  0  0  0
  3  4  1  0  0  0
  4  5  1  0  0  0
  5  6  1  0  0  0
  6  7  2  0  0  0
  7  8  1  0  0  0
  8  9  2  0  0  0
  8 10  1  0  0  0
 10 11  2  0  0  0
 11 12  1  0  0  0
  4 13  1  0  0  0
 13 14  1  0  0  0
 14 15  1  0  0  0
 15 16  1  0  0  0
 16 17  1  0  0  0
 17 18  2  0  0  0
 17 19  1  0  0  0
 17 20  1  0  0  0
 14  1  1  0  0  0
 11  5  1  0  0  0
  2 21  1  0  0  0
  9 22  1  0  0  0
 12 23  1  0  0  0
 19 24  1  0  0  0
 20 25  1  0  0  0
M  END
>  <CHROM.0>
167.19299765,61.77888371,-54.09175063,-176.79633404,-167.03717539,179.81207250
-139.14887430,174.49742720,-178.88982422,60.98583601,2.41834899,-169.76748992

>  <CHROM.1>
64.50070922,57.77283202,22.91530965,94.72201071,140.96065690,163.29520490
75.55321080,-64.56572448,2.99199941,8.17749555,13.82023699,-0.70912218,0.07491599
2.54872974

>  <Name>

>  <RI>
3.49024e+07

>  <Rbt.Current_Directory>
/extra/banzai2/j5wagner/CELPP/2016_10_17_rdock_implementation/normal_run/tutorialVideo/tutorial_rdock_implementation/full_week_run/4-docking/5wrn/hiTanimoto_3hb8_docking

>  <Rbt.Executable>
rbdock ($Id: //depot/dev/client3/rdock/2013.1/src/exe/rbdock.cxx#4 $)

>  <Rbt.Library>
libRbt.so (2013.1, Build901 2013/11/27)

>  <Rbt.Parameter_File>
/home/j5wagner/env_00/source/rDock/rDock_2013.1_src//data/scripts/dock.prm

>  <Rbt.Receptor>
/extra/banzai2/j5wagner/CELPP/2016_10_17_rdock_implementation/normal_run/tutorialVideo/tutorial_rdock_implementation/full_week_run/4-docking/5wrn/hiTanimoto_3hb8_tech_prep/rDockGridGenInput.prm

>  <SCORE>
-24.6969

>  <SCORE.INTER>
-15.0694

>  <SCORE.INTER.CONST>
1

>  <SCORE.INTER.POLAR>
-2.48055

>  <SCORE.INTER.REPUL>
0.0140817

>  <SCORE.INTER.ROT>
4

>  <SCORE.INTER.VDW>
-16.1059

>  <SCORE.INTER.norm>
-0.75347

>  <SCORE.INTRA>
0.580858

>  <SCORE.INTRA.DIHEDRAL>
3.64875

>  <SCORE.INTRA.DIHEDRAL.0>
8.98184

>  <SCORE.INTRA.POLAR>
-1.07394

>  <SCORE.INTRA.POLAR.0>
0

>  <SCORE.INTRA.REPUL>
0

>  <SCORE.INTRA.REPUL.0>
0

>  <SCORE.INTRA.VDW>
2.40788

>  <SCORE.INTRA.VDW.0>
-1.60828

>  <SCORE.INTRA.norm>
0.0290429

>  <SCORE.RESTR>
0.304226

>  <SCORE.RESTR.CAVITY>
0.304226

>  <SCORE.RESTR.norm>
0.0152113

>  <SCORE.SYSTEM>
-10.5126

>  <SCORE.SYSTEM.CONST>
0

>  <SCORE.SYSTEM.DIHEDRAL>
3.03653

>  <SCORE.SYSTEM.POLAR>
-4.25137

>  <SCORE.SYSTEM.REPUL>
0.755982

>  <SCORE.SYSTEM.VDW>
-1.35613

>  <SCORE.SYSTEM.norm>
-0.525632

>  <SCORE.heavy>
20

>  <SCORE.norm>
-1.23485

$$$$

  rDOCK(R)          3D
libRbt.so/2013.1/901 2013/11/27
 25 26  0  0  0  0  0  0  0  0999 V2000
    3.9274   10.7120   15.0705 C   0  0  0  0  0  0
    3.8930   11.9408   15.7567 O   0  0  0  0  0  0
    3.2648    9.6019   15.8381 C   0  0  0  0  0  0
    2.6657    8.7234   14.7374 C   0  0  0  0  0  0
    3.3956    7.4379   14.6420 N   0  0  0  0  0  0
    2.8173    6.2831   15.1054 C   0  0  0  0  0  0
    3.4943    5.0680   15.0458 C   0  0  0  0  0  0
    4.7738    5.0426   14.4947 C   0  0  0  0  0  0
    5.4484    3.9395   14.4211 N   0  0  0  0  0  0
    5.3157    6.1899   14.0212 N   0  0  0  0  0  0
    4.6512    7.3743   14.0752 C   0  0  0  0  0  0
    5.2817    8.4973   13.5320 O   0  0  0  0  0  0
    2.6979    9.4240   13.5055 O   0  0  0  0  0  0
    3.1352   10.7369   13.7675 C   0  0  0  0  0  0
    3.9719   11.2479   12.5859 C   0  0  0  0  0  0
    3.7666   10.4405   11.4440 O   0  0  0  0  0  0
    4.1827   11.3034   10.0295 P   0  0  0  0  0  0
    3.9057   10.4527    8.8095 O   0  0  0  0  0  0
    3.3127   12.7539    9.9286 O   0  0  0  0  0  0
    5.8345   11.6630   10.0801 O   0  0  0  0  0  0
    2.9456   12.2263   15.8393 H   0  0  0  0  0  0
    5.0730    3.0281   14.7696 H   0  0  0  0  0  0
    6.2247    8.4985   13.1687 H   0  0  0  0  0  0
    3.9065   13.4420   10.3224 H   0  0  0  0  0  0
    5.9632   12.1277   10.9452 H   0  0  0  0  0  0
  1  2  1  0  0  0
  1  3  1  0  0  0
  3  4  1  0  0  0
  4  5  1  0  0  0
  5  6  1  0  0  0
  6  7  2  0  0  0
  7  8  1  0  0  0
  8  9  2  0  0  0
  8 10  1  0  0  0
 10 11  2  0  0  0
 11 12  1  0  0  0
  4 13  1  0  0  0
 13 14  1  0  0  0
 14 15  1  0  0  0
 15 16  1  0  0  0
 16 17  1  0  0  0
 17 18  2  0  0  0
 17 19  1  0  0  0
 17 20  1  0  0  0
 14  1  1  0  0  0
 11  5  1  0  0  0
  2 21  1  0  0  0
  9 22  1  0  0  0
 12 23  1  0  0  0
 19 24  1  0  0  0
 20 25  1  0  0  0
M  END
>  <CHROM.0>
-88.54628789,-59.92606969,-55.72336198,63.66553155,36.73944120,59.92060268
-158.26360986,169.93317305,-179.98736451,41.76211573,-2.51923807,-47.04918110

>  <CHROM.1>
-64.88469161,106.41703457,175.52510359,135.97113304,158.35527439,-177.65709111
94.70096316,-54.23568910,4.01947506,9.21479690,13.05412295,1.53144214,-1.25605002
2.44352152

>  <Name>

>  <RI>
3.49024e+07

>  <Rbt.Current_Directory>
/extra/banzai2/j5wagner/CELPP/2016_10_17_rdock_implementation/normal_run/tutorialVideo/tutorial_rdock_implementation/full_week_run/4-docking/5wrn/hiTanimoto_3hb8_docking

>  <Rbt.Executable>
rbdock ($Id: //depot/dev/client3/rdock/2013.1/src/exe/rbdock.cxx#4 $)

>  <Rbt.Library>
libRbt.so (2013.1, Build901 2013/11/27)

>  <Rbt.Parameter_File>
/home/j5wagner/env_00/source/rDock/rDock_2013.1_src//data/scripts/dock.prm

>  <Rbt.Receptor>
/extra/banzai2/j5wagner/CELPP/2016_10_17_rdock_implementation/normal_run/tutorialVideo/tutorial_rdock_implementation/full_week_run/4-docking/5wrn/hiTanimoto_3hb8_tech_prep/rDockGridGenInput.prm

>  <SCORE>
-24.0371

>  <SCORE.INTER>
-23.1403

>  <SCORE.INTER.CONST>
1

>  <SCORE.INTER.POLAR>
-4.12787

>  <SCORE.INTER.REPUL>
0.0567866

>  <SCORE.INTER.ROT>
4

>  <SCORE.INTER.VDW>
-18.7895

>  <SCORE.INTER.norm>
-1.15702

>  <SCORE.INTRA>
0.570466

>  <SCORE.INTRA.DIHEDRAL>
1.69039

>  <SCORE.INTRA.DIHEDRAL.0>
8.98184

>  <SCORE.INTRA.POLAR>
0

>  <SCORE.INTRA.POLAR.0>
0

>  <SCORE.INTRA.REPUL>
0

>  <SCORE.INTRA.REPUL.0>
0

>  <SCORE.INTRA.VDW>
-0.27473

>  <SCORE.INTRA.VDW.0>
-1.60828

>  <SCORE.INTRA.norm>
0.0285233

>  <SCORE.RESTR>
0.591418

>  <SCORE.RESTR.CAVITY>
0.591418

>  <SCORE.RESTR.norm>
0.0295709

>  <SCORE.SYSTEM>
-2.05868

>  <SCORE.SYSTEM.CONST>
0

>  <SCORE.SYSTEM.DIHEDRAL>
11.4951

>  <SCORE.SYSTEM.POLAR>
-3.21446

>  <SCORE.SYSTEM.REPUL>
0.854169

>  <SCORE.SYSTEM.VDW>
-1.1479

>  <SCORE.SYSTEM.norm>
-0.102934

>  <SCORE.heavy>
20

>  <SCORE.norm>
-1.20186

$$$$

  rDOCK(R)          3D
libRbt.so/2013.1/901 2013/11/27
 25 26  0  0  0  0  0  0  0  0999 V2000
    3.6290    8.5308   13.8746 C   0  0  0  0  0  0
    2.5198    8.4584   13.0105 O   0  0  0  0  0  0
    3.5723    7.5089   14.9760 C   0  0  0  0  0  0
    5.0450    7.1674   15.2137 C   0  0  0  0  0  0
    5.4986    7.6986   16.5200 N   0  0  0  0  0  0
    5.7848    6.8383   17.5498 C   0  0  0  0  0  0
    6.1911    7.3171   18.7924 C   0  0  0  0  0  0
    6.3126    8.6937   18.9707 C   0  0  0  0  0  0
    6.6812    9.1906   20.1084 N   0  0  0  0  0  0
    6.0484    9.5233   17.9334 N   0  0  0  0  0  0
    5.6571    9.0539   16.7193 C   0  0  0  0  0  0
    5.4382    9.9877   15.7026 O   0  0  0  0  0  0
    5.8264    7.6853   14.1504 O   0  0  0  0  0  0
    4.9459    8.2010   13.1796 C   0  0  0  0  0  0
    5.5768    9.4309   12.5114 C   0  0  0  0  0  0
    4.7600    9.8987   11.4568 O   0  0  0  0  0  0
    5.7111   10.2280   10.0763 P   0  0  0  0  0  0
    4.9783    9.7822    8.8302 O   0  0  0  0  0  0
    6.0718   11.8803    9.9712 O   0  0  0  0  0  0
    7.1591    9.3625   10.1967 O   0  0  0  0  0  0
    1.7040    8.6844   13.5295 H   0  0  0  0  0  0
    6.8991    8.5924   20.9376 H   0  0  0  0  0  0
    5.6299   10.9761   15.7888 H   0  0  0  0  0  0
    6.2213   12.1745   10.9051 H   0  0  0  0  0  0
    6.8810    8.4125   10.2302 H   0  0  0  0  0  0
  1  2  1  0  0  0
  1  3  1  0  0  0
  3  4  1  0  0  0
  4  5  1  0  0  0
  5  6  1  0  0  0
  6  7  2  0  0  0
  7  8  1  0  0  0
  8  9  2  0  0  0
  8 10  1  0  0  0
 10 11  2  0  0  0
 11 12  1  0  0  0
  4 13  1  0  0  0
 13 14  1  0  0  0
 14 15  1  0  0  0
 15 16  1  0  0  0
 16 17  1  0  0  0
 17 18  2  0  0  0
 17 19  1  0  0  0
 17 20  1  0  0  0
 14  1  1  0  0  0
 11  5  1  0  0  0
  2 21  1  0  0  0
  9 22  1  0  0  0
 12 23  1  0  0  0
 19 24  1  0  0  0
 20 25  1  0  0  0
M  END
>  <CHROM.0>
169.98792443,-178.33508877,-55.65543873,-175.26874605,-175.66651716,-178.19228874
-144.37890215,-167.11773959,-59.06089443,-176.87767477,177.06860830,57.83452951

>  <CHROM.1>
64.26733387,110.30152243,-173.88116941,-65.10577955,-134.28371780,140.35543531
37.55988323,60.62245828,5.38128907,8.96821910,14.05919813,1.63372963,-0.71362196
-1.30593865

>  <Name>

>  <RI>
3.49024e+07

>  <Rbt.Current_Directory>
/extra/banzai2/j5wagner/CELPP/2016_10_17_rdock_implementation/normal_run/tutorialVideo/tutorial_rdock_implementation/full_week_run/4-docking/5wrn/hiTanimoto_3hb8_docking

>  <Rbt.Executable>
rbdock ($Id: //depot/dev/client3/rdock/2013.1/src/exe/rbdock.cxx#4 $)

>  <Rbt.Library>
libRbt.so (2013.1, Build901 2013/11/27)

>  <Rbt.Parameter_File>
/home/j5wagner/env_00/source/rDock/rDock_2013.1_src//data/scripts/dock.prm

>  <Rbt.Receptor>
/extra/banzai2/j5wagner/CELPP/2016_10_17_rdock_implementation/normal_run/tutorialVideo/tutorial_rdock_implementation/full_week_run/4-docking/5wrn/hiTanimoto_3hb8_tech_prep/rDockGridGenInput.prm

>  <SCORE>
-36.938

>  <SCORE.INTER>
-24.3634

>  <SCORE.INTER.CONST>
1

>  <SCORE.INTER.POLAR>
-2.77716

>  <SCORE.INTER.REPUL>
0.116647

>  <SCORE.INTER.ROT>
4

>  <SCORE.INTER.VDW>
-24.9043

>  <SCORE.INTER.norm>
-1.21817

>  <SCORE.INTRA>
0.916519

>  <SCORE.INTRA.DIHEDRAL>
2.35266

>  <SCORE.INTRA.DIHEDRAL.0>
8.98184

>  <SCORE.INTRA.POLAR>
0

>  <SCORE.INTRA.POLAR.0>
0

>  <SCORE.INTRA.REPUL>
0

>  <SCORE.INTRA.REPUL.0>
0

>  <SCORE.INTRA.VDW>
-0.259809

>  <SCORE.INTRA.VDW.0>
-1.60828

>  <SCORE.INTRA.norm>
0.045826

>  <SCORE.RESTR>
0

>  <SCORE.RESTR.CAVITY>
0

>  <SCORE.RESTR.norm>
0

>  <SCORE.SYSTEM>
-13.4911

>  <SCORE.SYSTEM.CONST>
0

>  <SCORE.SYSTEM.DIHEDRAL>
5.8942

>  <SCORE.SYSTEM.POLAR>
-4.24477

>  <SCORE.SYSTEM.REPUL>
0.0214573

>  <SCORE.SYSTEM.VDW>
-2.11328

>  <SCORE.SYSTEM.norm>
-0.674555

>  <SCORE.heavy>
20

>  <SCORE.norm>
-1.8469

$$$$

  rDOCK(R)          3D
libRbt.so/2013.1/901 2013/11/27
 25 26  0  0  0  0  0  0  0  0999 V2000
    3.9197   10.7047   15.1639 C   0  0  0  0  0  0
    3.8911   11.9205   15.8731 O   0  0  0  0  0  0
    3.2548    9.5827   15.9118 C   0  0  0  0  0  0
    2.6503    8.7272   14.7961 C   0  0  0  0  0  0
    3.3754    7.4412   14.6748 N   0  0  0  0  0  0
    2.8149    6.2875   15.1621 C   0  0  0  0  0  0
    3.4886    5.0719   15.0786 C   0  0  0  0  0  0
    4.7459    5.0449   14.4788 C   0  0  0  0  0  0
    5.4167    3.9414   14.3813 N   0  0  0  0  0  0
    5.2697    6.1912   13.9829 N   0  0  0  0  0  0
    4.6082    7.3760   14.0603 C   0  0  0  0  0  0
    5.2180    8.4977   13.4914 O   0  0  0  0  0  0
    2.6824    9.4507   13.5775 O   0  0  0  0  0  0
    3.1249   10.7570   13.8632 C   0  0  0  0  0  0
    3.9609   11.2873   12.6897 C   0  0  0  0  0  0
    3.8200   10.4502   11.5594 O   0  0  0  0  0  0
    4.2459   11.3001   10.1399 P   0  0  0  0  0  0
    4.0595   10.4080    8.9324 O   0  0  0  0  0  0
    3.3082   12.7011    9.9701 O   0  0  0  0  0  0
    5.8742   11.7454   10.2428 O   0  0  0  0  0  0
    2.9426   12.1718   16.0247 H   0  0  0  0  0  0
    5.0545    3.0308   14.7454 H   0  0  0  0  0  0
    5.5268    9.3037   14.0170 H   0  0  0  0  0  0
    3.9583   13.4476    9.9372 H   0  0  0  0  0  0
    5.8743   12.7270   10.1106 H   0  0  0  0  0  0
  1  2  1  0  0  0
  1  3  1  0  0  0
  3  4  1  0  0  0
  4  5  1  0  0  0
  5  6  1  0  0  0
  6  7  2  0  0  0
  7  8  1  0  0  0
  8  9  2  0  0  0
  8 10  1  0  0  0
 10 11  2  0  0  0
 11 12  1  0  0  0
  4 13  1  0  0  0
 13 14  1  0  0  0
 14 15  1  0  0  0
 15 16  1  0  0  0
 16 17  1  0  0  0
 17 18  2  0  0  0
 17 19  1  0  0  0
 17 20  1  0  0  0
 14  1  1  0  0  0
 11  5  1  0  0  0
  2 21  1  0  0  0
  9 22  1  0  0  0
 12 23  1  0  0  0
 19 24  1  0  0  0
 20 25  1  0  0  0
M  END
>  <CHROM.0>
165.14093130,-57.64576098,62.37854945,-59.15565129,-178.90857843,-60.08564166
-157.27988156,5.11132852,77.84349118,-67.95994763,1.97254369,-49.48091783

>  <CHROM.1>
-60.54817090,104.02165249,64.99273195,132.04024903,159.18526976,-178.60052218
121.60711724,-124.79344694,4.02180797,9.22143683,13.11446032,1.57589059,-1.25268356
2.49554874

>  <Name>

>  <RI>
3.49024e+07

>  <Rbt.Current_Directory>
/extra/banzai2/j5wagner/CELPP/2016_10_17_rdock_implementation/normal_run/tutorialVideo/tutorial_rdock_implementation/full_week_run/4-docking/5wrn/hiTanimoto_3hb8_docking

>  <Rbt.Executable>
rbdock ($Id: //depot/dev/client3/rdock/2013.1/src/exe/rbdock.cxx#4 $)

>  <Rbt.Library>
libRbt.so (2013.1, Build901 2013/11/27)

>  <Rbt.Parameter_File>
/home/j5wagner/env_00/source/rDock/rDock_2013.1_src//data/scripts/dock.prm

>  <Rbt.Receptor>
/extra/banzai2/j5wagner/CELPP/2016_10_17_rdock_implementation/normal_run/tutorialVideo/tutorial_rdock_implementation/full_week_run/4-docking/5wrn/hiTanimoto_3hb8_tech_prep/rDockGridGenInput.prm

>  <SCORE>
-25.9178

>  <SCORE.INTER>
-24.5123

>  <SCORE.INTER.CONST>
1

>  <SCORE.INTER.POLAR>
-4.60889

>  <SCORE.INTER.REPUL>
0

>  <SCORE.INTER.ROT>
4

>  <SCORE.INTER.VDW>
-18.2421

>  <SCORE.INTER.norm>
-1.22562

>  <SCORE.INTRA>
4.71309

>  <SCORE.INTRA.DIHEDRAL>
8.84122

>  <SCORE.INTRA.DIHEDRAL.0>
8.98184

>  <SCORE.INTRA.POLAR>
0

>  <SCORE.INTRA.POLAR.0>
0

>  <SCORE.INTRA.REPUL>
0.0360804

>  <SCORE.INTRA.REPUL.0>
0

>  <SCORE.INTRA.VDW>
0.112082

>  <SCORE.INTRA.VDW.0>
-1.60828

>  <SCORE.INTRA.norm>
0.235655

>  <SCORE.RESTR>
0.644355

>  <SCORE.RESTR.CAVITY>
0.644355

>  <SCORE.RESTR.norm>
0.0322177

>  <SCORE.SYSTEM>
-6.76291

>  <SCORE.SYSTEM.CONST>
0

>  <SCORE.SYSTEM.DIHEDRAL>
5.74377

>  <SCORE.SYSTEM.POLAR>
-2.9982

>  <SCORE.SYSTEM.REPUL>
0.133604

>  <SCORE.SYSTEM.VDW>
-0.108946

>  <SCORE.SYSTEM.norm>
-0.338145

>  <SCORE.heavy>
20

>  <SCORE.norm>
-1.29589

$$$$

  rDOCK(R)          3D
libRbt.so/2013.1/901 2013/11/27
 25 26  0  0  0  0  0  0  0  0999 V2000
    2.9538   10.5156   13.6180 C   0  0  0  0  0  0
    2.3300   11.0508   14.7609 O   0  0  0  0  0  0
    4.4288   10.8042   13.5751 C   0  0  0  0  0  0
    5.0080    9.5684   12.8828 C   0  0  0  0  0  0
    5.4915    9.9106   11.5250 N   0  0  0  0  0  0
    6.5727    9.2533   10.9945 C   0  0  0  0  0  0
    7.0573    9.5745    9.7294 C   0  0  0  0  0  0
    6.4152   10.5747    9.0023 C   0  0  0  0  0  0
    6.8298   10.9154    7.8236 N   0  0  0  0  0  0
    5.3350   11.1936    9.5353 N   0  0  0  0  0  0
    4.8598   10.8750   10.7682 C   0  0  0  0  0  0
    3.7205   11.5482   11.2182 O   0  0  0  0  0  0
    4.0230    8.5501   12.8347 O   0  0  0  0  0  0
    2.9098    8.9916   13.5760 C   0  0  0  0  0  0
    1.6192    8.4628   12.9342 C   0  0  0  0  0  0
    0.4984    9.1882   13.3987 O   0  0  0  0  0  0
   -0.8450    8.1477   13.5753 P   0  0  0  0  0  0
   -1.7656    8.6768   14.6528 O   0  0  0  0  0  0
   -1.6926    8.0020   12.1153 O   0  0  0  0  0  0
   -0.2891    6.6182   14.0356 O   0  0  0  0  0  0
    1.3851   10.7458   14.7731 H   0  0  0  0  0  0
    7.6564   10.4658    7.3680 H   0  0  0  0  0  0
    3.3950   12.4275   10.8415 H   0  0  0  0  0  0
   -1.3353    8.7198   11.5338 H   0  0  0  0  0  0
    0.2370    6.7802   14.8590 H   0  0  0  0  0  0
  1  2  1  0  0  0
  1  3  1  0  0  0
  3  4  1  0  0  0
  4  5  1  0  0  0
  5  6  1  0  0  0
  6  7  2  0  0  0
  7  8  1  0  0  0
  8  9  2  0  0  0
  8 10  1  0  0  0
 10 11  2  0  0  0
 11 12  1  0  0  0
  4 13  1  0  0  0
 13 14  1  0  0  0
 14 15  1  0  0  0
 15 16  1  0  0  0
 16 17  1  0  0  0
 17 18  2  0  0  0
 17 19  1  0  0  0
 17 20  1  0  0  0
 14  1  1  0  0  0
 11  5  1  0  0  0
  2 21  1  0  0  0
  9 22  1  0  0  0
 12 23  1  0  0  0
 19 24  1  0  0  0
 20 25  1  0  0  0
M  END
>  <CHROM.0>
45.89939812,63.46973072,-54.77670475,-176.64948679,61.21937084,62.90693318
-142.88515647,1.54287086,-58.41392497,-177.10950347,-4.81840671,-167.64791577

>  <CHROM.1>
-174.25536335,147.57347166,160.83993567,-43.03596268,-143.48763600,151.92808992
-12.60794443,56.00263112,2.86780910,9.50532432,12.28505964,-2.73665864,-0.41960728
-1.79880705

>  <Name>

>  <RI>
3.49024e+07

>  <Rbt.Current_Directory>
/extra/banzai2/j5wagner/CELPP/2016_10_17_rdock_implementation/normal_run/tutorialVideo/tutorial_rdock_implementation/full_week_run/4-docking/5wrn/hiTanimoto_3hb8_docking

>  <Rbt.Executable>
rbdock ($Id: //depot/dev/client3/rdock/2013.1/src/exe/rbdock.cxx#4 $)

>  <Rbt.Library>
libRbt.so (2013.1, Build901 2013/11/27)

>  <Rbt.Parameter_File>
/home/j5wagner/env_00/source/rDock/rDock_2013.1_src//data/scripts/dock.prm

>  <Rbt.Receptor>
/extra/banzai2/j5wagner/CELPP/2016_10_17_rdock_implementation/normal_run/tutorialVideo/tutorial_rdock_implementation/full_week_run/4-docking/5wrn/hiTanimoto_3hb8_tech_prep/rDockGridGenInput.prm

>  <SCORE>
-27.9278

>  <SCORE.INTER>
-22.3825

>  <SCORE.INTER.CONST>
1

>  <SCORE.INTER.POLAR>
-3.3402

>  <SCORE.INTER.REPUL>
0.0784065

>  <SCORE.INTER.ROT>
4

>  <SCORE.INTER.VDW>
-20.8178

>  <SCORE.INTER.norm>
-1.11912

>  <SCORE.INTRA>
3.52411

>  <SCORE.INTRA.DIHEDRAL>
3.21557

>  <SCORE.INTRA.DIHEDRAL.0>
8.98184

>  <SCORE.INTRA.POLAR>
-0.349145

>  <SCORE.INTRA.POLAR.0>
0

>  <SCORE.INTRA.REPUL>
0

>  <SCORE.INTRA.REPUL.0>
0

>  <SCORE.INTRA.VDW>
3.10342

>  <SCORE.INTRA.VDW.0>
-1.60828

>  <SCORE.INTRA.norm>
0.176206

>  <SCORE.RESTR>
0.285535

>  <SCORE.RESTR.CAVITY>
0.285535

>  <SCORE.RESTR.norm>
0.0142768

>  <SCORE.SYSTEM>
-9.35497

>  <SCORE.SYSTEM.CONST>
0

>  <SCORE.SYSTEM.DIHEDRAL>
8.3304

>  <SCORE.SYSTEM.POLAR>
-3.20676

>  <SCORE.SYSTEM.REPUL>
0.031679

>  <SCORE.SYSTEM.VDW>
-2.77558

>  <SCORE.SYSTEM.norm>
-0.467749

>  <SCORE.heavy>
20

>  <SCORE.norm>
-1.39639

$$$$

  rDOCK(R)          3D
libRbt.so/2013.1/901 2013/11/27
 25 26  0  0  0  0  0  0  0  0999 V2000
    2.1341   10.6851   13.7549 C   0  0  0  0  0  0
    1.1663   11.4422   14.4420 O   0  0  0  0  0  0
    3.5013   11.3084   13.8079 C   0  0  0  0  0  0
    4.4382   10.0984   13.8206 C   0  0  0  0  0  0
    5.1719    9.9943   12.5380 N   0  0  0  0  0  0
    4.6645   10.5810   11.4063 C   0  0  0  0  0  0
    5.3264   10.4767   10.1858 C   0  0  0  0  0  0
    6.5261    9.7699   10.1350 C   0  0  0  0  0  0
    7.1780    9.6383    9.0237 N   0  0  0  0  0  0
    7.0210    9.2195   11.2691 N   0  0  0  0  0  0
    6.3763    9.3270   12.4608 C   0  0  0  0  0  0
    6.9830    8.7515   13.5808 O   0  0  0  0  0  0
    3.6876    8.9239   14.0787 O   0  0  0  0  0  0
    2.3676    9.3130   14.3785 C   0  0  0  0  0  0
    1.3855    8.2576   13.8504 C   0  0  0  0  0  0
    0.0502    8.6848   14.0316 O   0  0  0  0  0  0
   -1.0322    7.4396   13.5883 P   0  0  0  0  0  0
   -2.3635    8.0358   13.1874 O   0  0  0  0  0  0
   -0.4054    6.5208   12.3099 O   0  0  0  0  0  0
   -1.2676    6.4260   14.9214 O   0  0  0  0  0  0
    1.4588   11.5408   15.3857 H   0  0  0  0  0  0
    6.8393   10.0468    8.1229 H   0  0  0  0  0  0
    6.5539    8.6982   14.4941 H   0  0  0  0  0  0
   -0.9593    5.7002   12.2826 H   0  0  0  0  0  0
   -1.9272    5.7549   14.6124 H   0  0  0  0  0  0
  1  2  1  0  0  0
  1  3  1  0  0  0
  3  4  1  0  0  0
  4  5  1  0  0  0
  5  6  1  0  0  0
  6  7  2  0  0  0
  7  8  1  0  0  0
  8  9  2  0  0  0
  8 10  1  0  0  0
 10 11  2  0  0  0
 11 12  1  0  0  0
  4 13  1  0  0  0
 13 14  1  0  0  0
 14 15  1  0  0  0
 15 16  1  0  0  0
 16 17  1  0  0  0
 17 18  2  0  0  0
 17 19  1  0  0  0
 17 20  1  0  0  0
 14  1  1  0  0  0
 11  5  1  0  0  0
  2 21  1  0  0  0
  9 22  1  0  0  0
 12 23  1  0  0  0
 19 24  1  0  0  0
 20 25  1  0  0  0
M  END
>  <CHROM.0>
169.90078257,-177.79930403,-56.10775221,-60.09720685,178.66720450,-178.59766163
-148.66731600,-163.78393748,-179.80276362,68.58134052,143.48261391,179.48843994

>  <CHROM.1>
-58.03755049,-22.69373266,6.35606086,-54.88759036,-174.25725021,-154.87391933
165.22532820,177.71768067,2.75712361,9.07209435,12.94785347,-3.07209998,-0.41504663
-2.25232833

>  <Name>

>  <RI>
3.49024e+07

>  <Rbt.Current_Directory>
/extra/banzai2/j5wagner/CELPP/2016_10_17_rdock_implementation/normal_run/tutorialVideo/tutorial_rdock_implementation/full_week_run/4-docking/5wrn/hiTanimoto_3hb8_docking

>  <Rbt.Executable>
rbdock ($Id: //depot/dev/client3/rdock/2013.1/src/exe/rbdock.cxx#4 $)

>  <Rbt.Library>
libRbt.so (2013.1, Build901 2013/11/27)

>  <Rbt.Parameter_File>
/home/j5wagner/env_00/source/rDock/rDock_2013.1_src//data/scripts/dock.prm

>  <Rbt.Receptor>
/extra/banzai2/j5wagner/CELPP/2016_10_17_rdock_implementation/normal_run/tutorialVideo/tutorial_rdock_implementation/full_week_run/4-docking/5wrn/hiTanimoto_3hb8_tech_prep/rDockGridGenInput.prm

>  <SCORE>
-28.8385

>  <SCORE.INTER>
-18.5895

>  <SCORE.INTER.CONST>
1

>  <SCORE.INTER.POLAR>
-2.56445

>  <SCORE.INTER.REPUL>
0

>  <SCORE.INTER.ROT>
4

>  <SCORE.INTER.VDW>
-19.2704

>  <SCORE.INTER.norm>
-0.929476

>  <SCORE.INTRA>
-0.327641

>  <SCORE.INTRA.DIHEDRAL>
-4.97496

>  <SCORE.INTRA.DIHEDRAL.0>
8.98184

>  <SCORE.INTRA.POLAR>
0

>  <SCORE.INTRA.POLAR.0>
0

>  <SCORE.INTRA.REPUL>
0

>  <SCORE.INTRA.REPUL.0>
0

>  <SCORE.INTRA.VDW>
2.15984

>  <SCORE.INTRA.VDW.0>
-1.60828

>  <SCORE.INTRA.norm>
-0.016382

>  <SCORE.RESTR>
0.522967

>  <SCORE.RESTR.CAVITY>
0.522967

>  <SCORE.RESTR.norm>
0.0261484

>  <SCORE.SYSTEM>
-10.4443

>  <SCORE.SYSTEM.CONST>
0

>  <SCORE.SYSTEM.DIHEDRAL>
4.02938

>  <SCORE.SYSTEM.POLAR>
-4.25137

>  <SCORE.SYSTEM.REPUL>
0.731396

>  <SCORE.SYSTEM.VDW>
-1.6613

>  <SCORE.SYSTEM.norm>
-0.522215

>  <SCORE.heavy>
20

>  <SCORE.norm>
-1.44192

$$$$

  rDOCK(R)          3D
libRbt.so/2013.1/901 2013/11/27
 25 26  0  0  0  0  0  0  0  0999 V2000
    3.4643    9.0047   14.3272 C   0  0  0  0  0  0
    2.3896    8.4585   15.0542 O   0  0  0  0  0  0
    3.0136    9.7615   13.1087 C   0  0  0  0  0  0
    4.0507   10.8802   12.9872 C   0  0  0  0  0  0
    4.9231   10.6562   11.8111 N   0  0  0  0  0  0
    4.6040   11.2196   10.6014 C   0  0  0  0  0  0
    5.3978   11.0038    9.4781 C   0  0  0  0  0  0
    6.5348   10.2088    9.6064 C   0  0  0  0  0  0
    7.3034    9.9722    8.5912 N   0  0  0  0  0  0
    6.8441    9.6827   10.8154 N   0  0  0  0  0  0
    6.0711    9.8988   11.9123 C   0  0  0  0  0  0
    6.4907    9.3387   13.1222 O   0  0  0  0  0  0
    4.8096   10.9512   14.1824 O   0  0  0  0  0  0
    4.2356   10.0615   15.1111 C   0  0  0  0  0  0
    5.3369    9.4489   15.9881 C   0  0  0  0  0  0
    5.8674    8.2870   15.3825 O   0  0  0  0  0  0
    5.6082    6.9288   16.3857 P   0  0  0  0  0  0
    6.3415    5.7299   15.8256 O   0  0  0  0  0  0
    6.1331    7.2366   17.9671 O   0  0  0  0  0  0
    3.9520    6.5882   16.4197 O   0  0  0  0  0  0
    1.9330    7.7884   14.4811 H   0  0  0  0  0  0
    7.1093   10.3576    7.6389 H   0  0  0  0  0  0
    5.9290    8.7136   13.6832 H   0  0  0  0  0  0
    6.0476    6.3722   18.4431 H   0  0  0  0  0  0
    3.8615    5.8496   17.0733 H   0  0  0  0  0  0
  1  2  1  0  0  0
  1  3  1  0  0  0
  3  4  1  0  0  0
  4  5  1  0  0  0
  5  6  1  0  0  0
  6  7  2  0  0  0
  7  8  1  0  0  0
  8  9  2  0  0  0
  8 10  1  0  0  0
 10 11  2  0  0  0
 11 12  1  0  0  0
  4 13  1  0  0  0
 13 14  1  0  0  0
 14 15  1  0  0  0
 15 16  1  0  0  0
 16 17  1  0  0  0
 17 18  2  0  0  0
 17 19  1  0  0  0
 17 20  1  0  0  0
 14  1  1  0  0  0
 11  5  1  0  0  0
  2 21  1  0  0  0
  9 22  1  0  0  0
 12 23  1  0  0  0
 19 24  1  0  0  0
 20 25  1  0  0  0
M  END
>  <CHROM.0>
168.92764749,-178.45426364,-54.30313963,63.97632076,-169.97959994,60.20143324
-146.81146214,-173.99513611,-59.65592502,-68.26078266,135.11342880,-170.26278470

>  <CHROM.1>
63.77914021,92.57583532,56.93157693,32.04199835,-118.73202784,-172.23619407
-173.38052764,-175.21749300,5.18671819,9.03039288,13.75070220,1.68626414
-0.52159385,2.11326705

>  <Name>

>  <RI>
3.49024e+07

>  <Rbt.Current_Directory>
/extra/banzai2/j5wagner/CELPP/2016_10_17_rdock_implementation/normal_run/tutorialVideo/tutorial_rdock_implementation/full_week_run/4-docking/5wrn/hiTanimoto_3hb8_docking

>  <Rbt.Executable>
rbdock ($Id: //depot/dev/client3/rdock/2013.1/src/exe/rbdock.cxx#4 $)

>  <Rbt.Library>
libRbt.so (2013.1, Build901 2013/11/27)

>  <Rbt.Parameter_File>
/home/j5wagner/env_00/source/rDock/rDock_2013.1_src//data/scripts/dock.prm

>  <Rbt.Receptor>
/extra/banzai2/j5wagner/CELPP/2016_10_17_rdock_implementation/normal_run/tutorialVideo/tutorial_rdock_implementation/full_week_run/4-docking/5wrn/hiTanimoto_3hb8_tech_prep/rDockGridGenInput.prm

>  <SCORE>
-24.1804

>  <SCORE.INTER>
-11.8336

>  <SCORE.INTER.CONST>
1

>  <SCORE.INTER.POLAR>
-0.798016

>  <SCORE.INTER.REPUL>
0.331909

>  <SCORE.INTER.ROT>
4

>  <SCORE.INTER.VDW>
-20.1799

>  <SCORE.INTER.norm>
-0.59168

>  <SCORE.INTRA>
1.0186

>  <SCORE.INTRA.DIHEDRAL>
6.65143

>  <SCORE.INTRA.DIHEDRAL.0>
8.98184

>  <SCORE.INTRA.POLAR>
-0.701846

>  <SCORE.INTRA.POLAR.0>
0

>  <SCORE.INTRA.REPUL>
0

>  <SCORE.INTRA.REPUL.0>
0

>  <SCORE.INTRA.VDW>
0.0791668

>  <SCORE.INTRA.VDW.0>
-1.60828

>  <SCORE.INTRA.norm>
0.0509302

>  <SCORE.RESTR>
0.0575909

>  <SCORE.RESTR.CAVITY>
0.0575909

>  <SCORE.RESTR.norm>
0.00287954

>  <SCORE.SYSTEM>
-13.423

>  <SCORE.SYSTEM.CONST>
0

>  <SCORE.SYSTEM.DIHEDRAL>
4.94064

>  <SCORE.SYSTEM.POLAR>
-4.24577

>  <SCORE.SYSTEM.REPUL>
0.0176909

>  <SCORE.SYSTEM.VDW>
-1.54619

>  <SCORE.SYSTEM.norm>
-0.671152

>  <SCORE.heavy>
20

>  <SCORE.norm>
-1.20902

$$$$

  rDOCK(R)          3D
libRbt.so/2013.1/901 2013/11/27
 25 26  0  0  0  0  0  0  0  0999 V2000
    4.0001   10.0406   15.0943 C   0  0  0  0  0  0
    4.8604   11.0337   15.5999 O   0  0  0  0  0  0
    2.8486   10.6140   14.3160 C   0  0  0  0  0  0
    2.5926    9.5575   13.2389 C   0  0  0  0  0  0
    1.3143    8.8534   13.4933 N   0  0  0  0  0  0
    1.2963    7.4879   13.6257 C   0  0  0  0  0  0
    0.1031    6.8040   13.8430 C   0  0  0  0  0  0
   -1.0791    7.5358   13.9342 C   0  0  0  0  0  0
   -2.2162    6.9476   14.1295 N   0  0  0  0  0  0
   -1.0349    8.8850   13.8247 N   0  0  0  0  0  0
    0.1315    9.5514   13.6181 C   0  0  0  0  0  0
    0.0783   10.9465   13.5503 O   0  0  0  0  0  0
    3.6799    8.6488   13.2022 O   0  0  0  0  0  0
    4.6763    9.1333   14.0717 C   0  0  0  0  0  0
    5.4052    7.9535   14.7305 C   0  0  0  0  0  0
    5.3416    6.8063   13.9071 O   0  0  0  0  0  0
    5.3832    5.3914   14.8636 P   0  0  0  0  0  0
    5.4360    4.1705   13.9717 O   0  0  0  0  0  0
    6.7220    5.4031   15.9022 O   0  0  0  0  0  0
    3.9734    5.3255   15.7955 O   0  0  0  0  0  0
    5.3547   11.4362   14.8386 H   0  0  0  0  0  0
   -2.3021    5.9100   14.2236 H   0  0  0  0  0  0
   -0.4429   11.5265   14.1929 H   0  0  0  0  0  0
    7.5111    5.3072   15.3113 H   0  0  0  0  0  0
    3.4727    4.5495   15.4378 H   0  0  0  0  0  0
  1  2  1  0  0  0
  1  3  1  0  0  0
  3  4  1  0  0  0
  4  5  1  0  0  0
  5  6  1  0  0  0
  6  7  2  0  0  0
  7  8  1  0  0  0
  8  9  2  0  0  0
  8 10  1  0  0  0
 10 11  2  0  0  0
 11 12  1  0  0  0
  4 13  1  0  0  0
 13 14  1  0  0  0
 14 15  1  0  0  0
 15 16  1  0  0  0
 16 17  1  0  0  0
 17 18  2  0  0  0
 17 19  1  0  0  0
 17 20  1  0  0  0
 14  1  1  0  0  0
 11  5  1  0  0  0
  2 21  1  0  0  0
  9 22  1  0  0  0
 12 23  1  0  0  0
 19 24  1  0  0  0
 20 25  1  0  0  0
M  END
>  <CHROM.0>
-87.35677758,-175.55715725,-176.88454974,66.34964998,-158.51150067,64.03779438
-151.76905812,17.30118036,-178.09115980,64.71618585,11.65413211,-166.64818530

>  <CHROM.1>
-70.57106187,-123.33576057,-134.54654440,146.21740508,-150.78308029,-175.11465502
-68.64214876,112.68121949,2.94298699,7.86104606,14.30457147,-0.48180266,-0.16829972
-0.04795933

>  <Name>

>  <RI>
3.49024e+07

>  <Rbt.Current_Directory>
/extra/banzai2/j5wagner/CELPP/2016_10_17_rdock_implementation/normal_run/tutorialVideo/tutorial_rdock_implementation/full_week_run/4-docking/5wrn/hiTanimoto_3hb8_docking

>  <Rbt.Executable>
rbdock ($Id: //depot/dev/client3/rdock/2013.1/src/exe/rbdock.cxx#4 $)

>  <Rbt.Library>
libRbt.so (2013.1, Build901 2013/11/27)

>  <Rbt.Parameter_File>
/home/j5wagner/env_00/source/rDock/rDock_2013.1_src//data/scripts/dock.prm

>  <Rbt.Receptor>
/extra/banzai2/j5wagner/CELPP/2016_10_17_rdock_implementation/normal_run/tutorialVideo/tutorial_rdock_implementation/full_week_run/4-docking/5wrn/hiTanimoto_3hb8_tech_prep/rDockGridGenInput.prm

>  <SCORE>
-13.1745

>  <SCORE.INTER>
-16.9963

>  <SCORE.INTER.CONST>
1

>  <SCORE.INTER.POLAR>
-4.15085

>  <SCORE.INTER.REPUL>
0

>  <SCORE.INTER.ROT>
4

>  <SCORE.INTER.VDW>
-12.2834

>  <SCORE.INTER.norm>
-0.849814

>  <SCORE.INTRA>
3.66581

>  <SCORE.INTRA.DIHEDRAL>
5.50626

>  <SCORE.INTRA.DIHEDRAL.0>
8.98184

>  <SCORE.INTRA.POLAR>
0

>  <SCORE.INTRA.POLAR.0>
0

>  <SCORE.INTRA.REPUL>
0

>  <SCORE.INTRA.REPUL.0>
0

>  <SCORE.INTRA.VDW>
0.91268

>  <SCORE.INTRA.VDW.0>
-1.60828

>  <SCORE.INTRA.norm>
0.18329

>  <SCORE.RESTR>
0.0303974

>  <SCORE.RESTR.CAVITY>
0.0303974

>  <SCORE.RESTR.norm>
0.00151987

>  <SCORE.SYSTEM>
0.125555

>  <SCORE.SYSTEM.CONST>
0

>  <SCORE.SYSTEM.DIHEDRAL>
7.96319

>  <SCORE.SYSTEM.POLAR>
-2.01446

>  <SCORE.SYSTEM.REPUL>
0.753241

>  <SCORE.SYSTEM.VDW>
-0.773099

>  <SCORE.SYSTEM.norm>
0.00627773

>  <SCORE.heavy>
20

>  <SCORE.norm>
-0.658726

$$$$

  rDOCK(R)          3D
libRbt.so/2013.1/901 2013/11/27
 25 26  0  0  0  0  0  0  0  0999 V2000
    3.1558    8.8656   14.4631 C   0  0  0  0  0  0
    1.9284    8.7345   15.1402 O   0  0  0  0  0  0
    3.1320    9.9556   13.4278 C   0  0  0  0  0  0
    4.5652   10.4918   13.4502 C   0  0  0  0  0  0
    5.2787   10.1234   12.2054 N   0  0  0  0  0  0
    6.3120    9.2215   12.2467 C   0  0  0  0  0  0
    7.0106    8.8779   11.0925 C   0  0  0  0  0  0
    6.6336    9.4619    9.8849 C   0  0  0  0  0  0
    7.2546    9.1808    8.7836 N   0  0  0  0  0  0
    5.5953   10.3310    9.8632 N   0  0  0  0  0  0
    4.9108   10.6612   10.9901 C   0  0  0  0  0  0
    3.8344   11.5432   10.8602 O   0  0  0  0  0  0
    5.2376    9.9920   14.5937 O   0  0  0  0  0  0
    4.2960    9.2987   15.3788 C   0  0  0  0  0  0
    4.9756    8.1068   16.0677 C   0  0  0  0  0  0
    5.7107    7.3435   15.1322 O   0  0  0  0  0  0
    4.6817    6.2355   14.3371 P   0  0  0  0  0  0
    4.2781    6.7876   12.9877 O   0  0  0  0  0  0
    5.4455    4.7359   14.1399 O   0  0  0  0  0  0
    3.2915    6.0178   15.2753 O   0  0  0  0  0  0
    1.2271    8.5077   14.4749 H   0  0  0  0  0  0
    8.0594    8.5145    8.7478 H   0  0  0  0  0  0
    3.3249   11.9356   11.6397 H   0  0  0  0  0  0
    5.8097    4.5094   15.0327 H   0  0  0  0  0  0
    3.6244    5.6619   16.1375 H   0  0  0  0  0  0
  1  2  1  0  0  0
  1  3  1  0  0  0
  3  4  1  0  0  0
  4  5  1  0  0  0
  5  6  1  0  0  0
  6  7  2  0  0  0
  7  8  1  0  0  0
  8  9  2  0  0  0
  8 10  1  0  0  0
 10 11  2  0  0  0
 11 12  1  0  0  0
  4 13  1  0  0  0
 13 14  1  0  0  0
 14 15  1  0  0  0
 15 16  1  0  0  0
 16 17  1  0  0  0
 17 18  2  0  0  0
 17 19  1  0  0  0
 17 20  1  0  0  0
 14  1  1  0  0  0
 11  5  1  0  0  0
  2 21  1  0  0  0
  9 22  1  0  0  0
 12 23  1  0  0  0
 19 24  1  0  0  0
 20 25  1  0  0  0
M  END
>  <CHROM.0>
167.33089260,-178.35217276,62.94640446,-61.89675916,175.03358241,61.53914386
-127.59817714,5.59006332,79.74510351,61.40815177,-174.53774832,71.08959782

>  <CHROM.1>
60.74450611,-111.66985892,7.68819456,70.02136874,-83.88732890,98.96637180
49.40430975,-60.18966529,4.81456107,8.57379692,13.16637704,2.02698778,-0.86558141
2.53821732

>  <Name>

>  <RI>
3.49024e+07

>  <Rbt.Current_Directory>
/extra/banzai2/j5wagner/CELPP/2016_10_17_rdock_implementation/normal_run/tutorialVideo/tutorial_rdock_implementation/full_week_run/4-docking/5wrn/hiTanimoto_3hb8_docking

>  <Rbt.Executable>
rbdock ($Id: //depot/dev/client3/rdock/2013.1/src/exe/rbdock.cxx#4 $)

>  <Rbt.Library>
libRbt.so (2013.1, Build901 2013/11/27)

>  <Rbt.Parameter_File>
/home/j5wagner/env_00/source/rDock/rDock_2013.1_src//data/scripts/dock.prm

>  <Rbt.Receptor>
/extra/banzai2/j5wagner/CELPP/2016_10_17_rdock_implementation/normal_run/tutorialVideo/tutorial_rdock_implementation/full_week_run/4-docking/5wrn/hiTanimoto_3hb8_tech_prep/rDockGridGenInput.prm

>  <SCORE>
-19.1368

>  <SCORE.INTER>
-15.7597

>  <SCORE.INTER.CONST>
1

>  <SCORE.INTER.POLAR>
-1.5707

>  <SCORE.INTER.REPUL>
0.364957

>  <SCORE.INTER.ROT>
4

>  <SCORE.INTER.VDW>
-21.6442

>  <SCORE.INTER.norm>
-0.787987

>  <SCORE.INTRA>
-0.890167

>  <SCORE.INTRA.DIHEDRAL>
-1.64665

>  <SCORE.INTRA.DIHEDRAL.0>
8.98184

>  <SCORE.INTRA.POLAR>
0

>  <SCORE.INTRA.POLAR.0>
0

>  <SCORE.INTRA.REPUL>
0

>  <SCORE.INTRA.REPUL.0>
0

>  <SCORE.INTRA.VDW>
-0.0668411

>  <SCORE.INTRA.VDW.0>
-1.60828

>  <SCORE.INTRA.norm>
-0.0445083

>  <SCORE.RESTR>
0.493717

>  <SCORE.RESTR.CAVITY>
0.493717

>  <SCORE.RESTR.norm>
0.0246858

>  <SCORE.SYSTEM>
-2.9806

>  <SCORE.SYSTEM.CONST>
0

>  <SCORE.SYSTEM.DIHEDRAL>
9.63552

>  <SCORE.SYSTEM.POLAR>
-3.00055

>  <SCORE.SYSTEM.REPUL>
0.845608

>  <SCORE.SYSTEM.VDW>
-1.82452

>  <SCORE.SYSTEM.norm>
-0.14903

>  <SCORE.heavy>
20

>  <SCORE.norm>
-0.95684

$$$$

  rDOCK(R)          3D
libRbt.so/2013.1/901 2013/11/27
 25 26  0  0  0  0  0  0  0  0999 V2000
    3.9928   11.1727   14.1314 C   0  0  0  0  0  0
    3.6664   12.5080   14.4354 O   0  0  0  0  0  0
    3.5061   10.2059   15.1749 C   0  0  0  0  0  0
    3.1754    8.9512   14.3635 C   0  0  0  0  0  0
    4.1488    7.8726   14.6523 N   0  0  0  0  0  0
    4.8802    7.8994   15.8128 C   0  0  0  0  0  0
    5.8164    6.9079   16.0937 C   0  0  0  0  0  0
    5.9920    5.8755   15.1746 C   0  0  0  0  0  0
    6.8540    4.9322   15.3852 N   0  0  0  0  0  0
    5.2421    5.8557   14.0470 N   0  0  0  0  0  0
    4.3247    6.8216   13.7770 C   0  0  0  0  0  0
    3.5777    6.6965   12.6023 O   0  0  0  0  0  0
    3.1611    9.2729   12.9830 O   0  0  0  0  0  0
    3.3108   10.6683   12.8639 C   0  0  0  0  0  0
    4.1166   10.9950   11.5985 C   0  0  0  0  0  0
    5.1672   10.0658   11.4232 O   0  0  0  0  0  0
    5.8854   10.2712    9.8867 P   0  0  0  0  0  0
    6.9164   11.3767    9.9460 O   0  0  0  0  0  0
    6.6134    8.8335    9.3629 O   0  0  0  0  0  0
    4.6827   10.7057    8.7800 O   0  0  0  0  0  0
    3.9273   12.6870   15.3766 H   0  0  0  0  0  0
    7.4538    4.9012   16.2409 H   0  0  0  0  0  0
    2.7226    7.2020   12.4169 H   0  0  0  0  0  0
    6.8171    8.9787    8.4045 H   0  0  0  0  0  0
    4.3119    9.8442    8.4620 H   0  0  0  0  0  0
  1  2  1  0  0  0
  1  3  1  0  0  0
  3  4  1  0  0  0
  4  5  1  0  0  0
  5  6  1  0  0  0
  6  7  2  0  0  0
  7  8  1  0  0  0
  8  9  2  0  0  0
  8 10  1  0  0  0
 10 11  2  0  0  0
 11 12  1  0  0  0
  4 13  1  0  0  0
 13 14  1  0  0  0
 14 15  1  0  0  0
 15 16  1  0  0  0
 16 17  1  0  0  0
 17 18  2  0  0  0
 17 19  1  0  0  0
 17 20  1  0  0  0
 14  1  1  0  0  0
 11  5  1  0  0  0
  2 21  1  0  0  0
  9 22  1  0  0  0
 12 23  1  0  0  0
 19 24  1  0  0  0
 20 25  1  0  0  0
M  END
>  <CHROM.0>
170.75691336,178.19529320,-57.73709934,-175.38151630,43.95504409,60.13877964
-136.98714189,-143.22752322,77.85813648,61.30022780,4.72476012,-53.09941449

>  <CHROM.1>
48.71233880,21.11465821,-16.07345196,80.30771633,170.31116652,83.77825206
167.64148083,-86.60738221,4.82526309,9.04401193,12.80823598,1.47840984,1.00895603
-0.82436358

>  <Name>

>  <RI>
3.49024e+07

>  <Rbt.Current_Directory>
/extra/banzai2/j5wagner/CELPP/2016_10_17_rdock_implementation/normal_run/tutorialVideo/tutorial_rdock_implementation/full_week_run/4-docking/5wrn/hiTanimoto_3hb8_docking

>  <Rbt.Executable>
rbdock ($Id: //depot/dev/client3/rdock/2013.1/src/exe/rbdock.cxx#4 $)

>  <Rbt.Library>
libRbt.so (2013.1, Build901 2013/11/27)

>  <Rbt.Parameter_File>
/home/j5wagner/env_00/source/rDock/rDock_2013.1_src//data/scripts/dock.prm

>  <Rbt.Receptor>
/extra/banzai2/j5wagner/CELPP/2016_10_17_rdock_implementation/normal_run/tutorialVideo/tutorial_rdock_implementation/full_week_run/4-docking/5wrn/hiTanimoto_3hb8_tech_prep/rDockGridGenInput.prm

>  <SCORE>
-19.216

>  <SCORE.INTER>
-13.3085

>  <SCORE.INTER.CONST>
1

>  <SCORE.INTER.POLAR>
-2.2206

>  <SCORE.INTER.REPUL>
0.00765736

>  <SCORE.INTER.ROT>
4

>  <SCORE.INTER.VDW>
-15.1968

>  <SCORE.INTER.norm>
-0.665426

>  <SCORE.INTRA>
1.32681

>  <SCORE.INTRA.DIHEDRAL>
-1.63865

>  <SCORE.INTRA.DIHEDRAL.0>
8.98184

>  <SCORE.INTRA.POLAR>
-0.0854255

>  <SCORE.INTRA.POLAR.0>
0

>  <SCORE.INTRA.REPUL>
0

>  <SCORE.INTRA.REPUL.0>
0

>  <SCORE.INTRA.VDW>
2.43658

>  <SCORE.INTRA.VDW.0>
-1.60828

>  <SCORE.INTRA.norm>
0.0663403

>  <SCORE.RESTR>
0.0736901

>  <SCORE.RESTR.CAVITY>
0.0736901

>  <SCORE.RESTR.norm>
0.00368451

>  <SCORE.SYSTEM>
-7.30803

>  <SCORE.SYSTEM.CONST>
0

>  <SCORE.SYSTEM.DIHEDRAL>
11.2498

>  <SCORE.SYSTEM.POLAR>
-4.19821

>  <SCORE.SYSTEM.REPUL>
0.810069

>  <SCORE.SYSTEM.VDW>
-2.70933

>  <SCORE.SYSTEM.norm>
-0.365401

>  <SCORE.heavy>
20

>  <SCORE.norm>
-0.960802

$$$$

  rDOCK(R)          3D
libRbt.so/2013.1/901 2013/11/27
 25 26  0  0  0  0  0  0  0  0999 V2000
    4.2135   11.0723   14.1658 C   0  0  0  0  0  0
    4.2782   12.3783   14.6873 O   0  0  0  0  0  0
    3.4698   10.1256   15.0665 C   0  0  0  0  0  0
    2.7991    9.1618   14.0851 C   0  0  0  0  0  0
    3.4259    7.8218   14.1605 N   0  0  0  0  0  0
    2.7321    6.7677   14.6991 C   0  0  0  0  0  0
    3.3102    5.5051   14.8000 C   0  0  0  0  0  0
    4.6106    5.3266   14.3326 C   0  0  0  0  0  0
    5.1961    4.1740   14.4085 N   0  0  0  0  0  0
    5.2681    6.3751   13.7825 N   0  0  0  0  0  0
    4.7003    7.6056   13.6798 C   0  0  0  0  0  0
    5.4478    8.6160   13.0682 O   0  0  0  0  0  0
    2.8803    9.6927   12.7732 O   0  0  0  0  0  0
    3.4199   10.9904   12.8659 C   0  0  0  0  0  0
    4.2886   11.2777   11.6331 C   0  0  0  0  0  0
    4.4585   10.1068   10.8595 O   0  0  0  0  0  0
    5.3747   10.4530    9.4598 P   0  0  0  0  0  0
    4.4493   10.7878    8.3107 O   0  0  0  0  0  0
    6.4374   11.7434    9.7370 O   0  0  0  0  0  0
    6.2784    9.0832    9.0510 O   0  0  0  0  0  0
    4.9857   12.8752   14.1990 H   0  0  0  0  0  0
    4.7300    3.3342   14.8213 H   0  0  0  0  0  0
    6.2263    8.4487   12.4461 H   0  0  0  0  0  0
    6.8467   11.5589   10.6199 H   0  0  0  0  0  0
    6.8656    8.9279    9.8333 H   0  0  0  0  0  0
  1  2  1  0  0  0
  1  3  1  0  0  0
  3  4  1  0  0  0
  4  5  1  0  0  0
  5  6  1  0  0  0
  6  7  2  0  0  0
  7  8  1  0  0  0
  8  9  2  0  0  0
  8 10  1  0  0  0
 10 11  2  0  0  0
 11 12  1  0  0  0
  4 13  1  0  0  0
 13 14  1  0  0  0
 14 15  1  0  0  0
 15 16  1  0  0  0
 16 17  1  0  0  0
 17 18  2  0  0  0
 17 19  1  0  0  0
 17 20  1  0  0  0
 14  1  1  0  0  0
 11  5  1  0  0  0
  2 21  1  0  0  0
  9 22  1  0  0  0
 12 23  1  0  0  0
 19 24  1  0  0  0
 20 25  1  0  0  0
M  END
>  <CHROM.0>
168.21634176,-173.71857921,-53.91044681,-58.78321503,-161.05840638,-172.93983802
-144.44386488,5.43543123,-174.00846108,-168.24296920,163.15147969,-45.96880947

>  <CHROM.1>
163.74137332,110.03780146,-158.89833743,111.30094727,177.78280895,-92.71569561
44.72991666,-61.16286254,4.47175447,9.13711306,12.48266849,1.10935531,1.14511985
-0.37597733

>  <Name>

>  <RI>
3.49024e+07

>  <Rbt.Current_Directory>
/extra/banzai2/j5wagner/CELPP/2016_10_17_rdock_implementation/normal_run/tutorialVideo/tutorial_rdock_implementation/full_week_run/4-docking/5wrn/hiTanimoto_3hb8_docking

>  <Rbt.Executable>
rbdock ($Id: //depot/dev/client3/rdock/2013.1/src/exe/rbdock.cxx#4 $)

>  <Rbt.Library>
libRbt.so (2013.1, Build901 2013/11/27)

>  <Rbt.Parameter_File>
/home/j5wagner/env_00/source/rDock/rDock_2013.1_src//data/scripts/dock.prm

>  <Rbt.Receptor>
/extra/banzai2/j5wagner/CELPP/2016_10_17_rdock_implementation/normal_run/tutorialVideo/tutorial_rdock_implementation/full_week_run/4-docking/5wrn/hiTanimoto_3hb8_tech_prep/rDockGridGenInput.prm

>  <SCORE>
-37.3998

>  <SCORE.INTER>
-24.8327

>  <SCORE.INTER.CONST>
1

>  <SCORE.INTER.POLAR>
-3.99369

>  <SCORE.INTER.REPUL>
0.0088302

>  <SCORE.INTER.ROT>
4

>  <SCORE.INTER.VDW>
-20.6983

>  <SCORE.INTER.norm>
-1.24164

>  <SCORE.INTRA>
0.44301

>  <SCORE.INTRA.DIHEDRAL>
1.9492

>  <SCORE.INTRA.DIHEDRAL.0>
8.98184

>  <SCORE.INTRA.POLAR>
0

>  <SCORE.INTRA.POLAR.0>
0

>  <SCORE.INTRA.REPUL>
0.00892031

>  <SCORE.INTRA.REPUL.0>
0

>  <SCORE.INTRA.VDW>
-0.57619

>  <SCORE.INTRA.VDW.0>
-1.60828

>  <SCORE.INTRA.norm>
0.0221505

>  <SCORE.RESTR>
0

>  <SCORE.RESTR.CAVITY>
0

>  <SCORE.RESTR.norm>
0

>  <SCORE.SYSTEM>
-13.0101

>  <SCORE.SYSTEM.CONST>
0

>  <SCORE.SYSTEM.DIHEDRAL>
6.51638

>  <SCORE.SYSTEM.POLAR>
-4.25137

>  <SCORE.SYSTEM.REPUL>
0.0541502

>  <SCORE.SYSTEM.VDW>
-2.08433

>  <SCORE.SYSTEM.norm>
-0.650503

>  <SCORE.heavy>
20

>  <SCORE.norm>
-1.86999

$$$$

  rDOCK(R)          3D
libRbt.so/2013.1/901 2013/11/27
 25 26  0  0  0  0  0  0  0  0999 V2000
    4.6471    9.4493   14.5358 C   0  0  0  0  0  0
    4.9440   10.7928   14.8338 O   0  0  0  0  0  0
    3.2986    9.0269   15.0495 C   0  0  0  0  0  0
    2.8275    8.0124   14.0050 C   0  0  0  0  0  0
    2.8267    6.6437   14.5717 N   0  0  0  0  0  0
    3.9073    5.8200   14.3805 C   0  0  0  0  0  0
    3.9182    4.5225   14.8852 C   0  0  0  0  0  0
    2.8098    4.0750   15.6012 C   0  0  0  0  0  0
    2.7673    2.8750   16.0865 N   0  0  0  0  0  0
    1.7644    4.9130   15.7987 N   0  0  0  0  0  0
    1.7577    6.1812   15.3099 C   0  0  0  0  0  0
    0.6461    6.9798   15.5933 O   0  0  0  0  0  0
    3.6601    8.0930   12.8606 O   0  0  0  0  0  0
    4.5327    9.1843   13.0382 C   0  0  0  0  0  0
    5.8912    8.8691   12.3962 C   0  0  0  0  0  0
    6.5443   10.0593   12.0025 O   0  0  0  0  0  0
    5.9192   10.6086   10.5104 P   0  0  0  0  0  0
    5.9029    9.4724    9.5116 O   0  0  0  0  0  0
    4.3537   11.2279   10.7023 O   0  0  0  0  0  0
    6.9213   11.8375    9.9224 O   0  0  0  0  0  0
    5.8324   11.0098   14.4471 H   0  0  0  0  0  0
    3.5494    2.1923   15.9638 H   0  0  0  0  0  0
    0.4969    7.9021   15.2085 H   0  0  0  0  0  0
    4.4317   11.9201   11.4065 H   0  0  0  0  0  0
    6.3262   12.4019    9.3674 H   0  0  0  0  0  0
  1  2  1  0  0  0
  1  3  1  0  0  0
  3  4  1  0  0  0
  4  5  1  0  0  0
  5  6  1  0  0  0
  6  7  2  0  0  0
  7  8  1  0  0  0
  8  9  2  0  0  0
  8 10  1  0  0  0
 10 11  2  0  0  0
 11 12  1  0  0  0
  4 13  1  0  0  0
 13 14  1  0  0  0
 14 15  1  0  0  0
 15 16  1  0  0  0
 16 17  1  0  0  0
 17 18  2  0  0  0
 17 19  1  0  0  0
 17 20  1  0  0  0
 14  1  1  0  0  0
 11  5  1  0  0  0
  2 21  1  0  0  0
  9 22  1  0  0  0
 12 23  1  0  0  0
 19 24  1  0  0  0
 20 25  1  0  0  0
M  END
>  <CHROM.0>
162.02583781,-60.65581200,-54.90707375,-59.09467398,-57.47205778,53.85658248
-145.43031384,5.57824996,-60.33566521,60.98313143,-177.05057368,-50.08394906

>  <CHROM.1>
-178.52606315,-95.27433015,6.59285399,-87.26420534,-80.42471159,-49.76234648
54.84999884,-152.31062149,4.15596792,8.22801384,13.30898935,0.79910401,0.90024092
-0.04247567

>  <Name>

>  <RI>
3.49024e+07

>  <Rbt.Current_Directory>
/extra/banzai2/j5wagner/CELPP/2016_10_17_rdock_implementation/normal_run/tutorialVideo/tutorial_rdock_implementation/full_week_run/4-docking/5wrn/hiTanimoto_3hb8_docking

>  <Rbt.Executable>
rbdock ($Id: //depot/dev/client3/rdock/2013.1/src/exe/rbdock.cxx#4 $)

>  <Rbt.Library>
libRbt.so (2013.1, Build901 2013/11/27)

>  <Rbt.Parameter_File>
/home/j5wagner/env_00/source/rDock/rDock_2013.1_src//data/scripts/dock.prm

>  <Rbt.Receptor>
/extra/banzai2/j5wagner/CELPP/2016_10_17_rdock_implementation/normal_run/tutorialVideo/tutorial_rdock_implementation/full_week_run/4-docking/5wrn/hiTanimoto_3hb8_tech_prep/rDockGridGenInput.prm

>  <SCORE>
-27.6694

>  <SCORE.INTER>
-18.4101

>  <SCORE.INTER.CONST>
1

>  <SCORE.INTER.POLAR>
-3.40708

>  <SCORE.INTER.REPUL>
0.0480922

>  <SCORE.INTER.ROT>
4

>  <SCORE.INTER.VDW>
-16.4664

>  <SCORE.INTER.norm>
-0.920503

>  <SCORE.INTRA>
-0.94078

>  <SCORE.INTRA.DIHEDRAL>
-0.95622

>  <SCORE.INTRA.DIHEDRAL.0>
8.98184

>  <SCORE.INTRA.POLAR>
0

>  <SCORE.INTRA.POLAR.0>
0

>  <SCORE.INTRA.REPUL>
0

>  <SCORE.INTRA.REPUL.0>
0

>  <SCORE.INTRA.VDW>
-0.46267

>  <SCORE.INTRA.VDW.0>
-1.60828

>  <SCORE.INTRA.norm>
-0.047039

>  <SCORE.RESTR>
0

>  <SCORE.RESTR.CAVITY>
0

>  <SCORE.RESTR.norm>
0

>  <SCORE.SYSTEM>
-8.31851

>  <SCORE.SYSTEM.CONST>
0

>  <SCORE.SYSTEM.DIHEDRAL>
8.62991

>  <SCORE.SYSTEM.POLAR>
-4.24693

>  <SCORE.SYSTEM.REPUL>
0.96027

>  <SCORE.SYSTEM.VDW>
-2.99527

>  <SCORE.SYSTEM.norm>
-0.415926

>  <SCORE.heavy>
20

>  <SCORE.norm>
-1.38347

$$$$

  rDOCK(R)          3D
libRbt.so/2013.1/901 2013/11/27
 25 26  0  0  0  0  0  0  0  0999 V2000
    4.1944    9.6802   15.1342 C   0  0  0  0  0  0
    5.1160   10.5202   15.7878 O   0  0  0  0  0  0
    3.0012   10.4287   14.6082 C   0  0  0  0  0  0
    2.6363    9.6582   13.3373 C   0  0  0  0  0  0
    1.3640    8.9222   13.5215 N   0  0  0  0  0  0
    1.3685    7.5529   13.6082 C   0  0  0  0  0  0
    0.1822    6.8399   13.7591 C   0  0  0  0  0  0
   -1.0168    7.5460   13.8311 C   0  0  0  0  0  0
   -2.1483    6.9303   13.9654 N   0  0  0  0  0  0
   -0.9957    8.8986   13.7678 N   0  0  0  0  0  0
    0.1639    9.5934   13.6260 C   0  0  0  0  0  0
    0.0854   10.9887   13.6021 O   0  0  0  0  0  0
    3.6943    8.7770   13.0003 O   0  0  0  0  0  0
    4.7666    9.0360   13.8758 C   0  0  0  0  0  0
    5.5140    7.7293   14.1777 C   0  0  0  0  0  0
    4.7810    6.6160   13.7071 O   0  0  0  0  0  0
    4.9219    5.3121   14.8019 P   0  0  0  0  0  0
    4.1002    4.1400   14.3123 O   0  0  0  0  0  0
    6.5409    4.8449   14.9800 O   0  0  0  0  0  0
    4.3292    5.8025   16.3080 O   0  0  0  0  0  0
    5.8902    9.9697   16.0769 H   0  0  0  0  0  0
   -2.2169    5.8887   14.0221 H   0  0  0  0  0  0
   -0.4858   11.5358   14.2310 H   0  0  0  0  0  0
    6.7667    4.3633   14.1444 H   0  0  0  0  0  0
    3.4377    6.1872   16.1132 H   0  0  0  0  0  0
  1  2  1  0  0  0
  1  3  1  0  0  0
  3  4  1  0  0  0
  4  5  1  0  0  0
  5  6  1  0  0  0
  6  7  2  0  0  0
  7  8  1  0  0  0
  8  9  2  0  0  0
  8 10  1  0  0  0
 10 11  2  0  0  0
 11 12  1  0  0  0
  4 13  1  0  0  0
 13 14  1  0  0  0
 14 15  1  0  0  0
 15 16  1  0  0  0
 16 17  1  0  0  0
 17 18  2  0  0  0
 17 19  1  0  0  0
 17 20  1  0  0  0
 14  1  1  0  0  0
 11  5  1  0  0  0
  2 21  1  0  0  0
  9 22  1  0  0  0
 12 23  1  0  0  0
 19 24  1  0  0  0
 20 25  1  0  0  0
M  END
>  <CHROM.0>
164.51103114,-178.28033218,-54.61958388,-62.16142687,45.69009183,-56.81748777
-146.99463658,-170.67955825,-176.77927737,-67.19645021,177.24009821,-164.08909631

>  <CHROM.1>
-177.84383250,-109.69644075,-135.94954813,108.79661532,-142.21310802,178.25777257
-74.25451651,50.90925310,2.86369716,7.79233125,14.25707860,-0.49947269,-0.17239969
-0.04099160

>  <Name>

>  <RI>
3.49024e+07

>  <Rbt.Current_Directory>
/extra/banzai2/j5wagner/CELPP/2016_10_17_rdock_implementation/normal_run/tutorialVideo/tutorial_rdock_implementation/full_week_run/4-docking/5wrn/hiTanimoto_3hb8_docking

>  <Rbt.Executable>
rbdock ($Id: //depot/dev/client3/rdock/2013.1/src/exe/rbdock.cxx#4 $)

>  <Rbt.Library>
libRbt.so (2013.1, Build901 2013/11/27)

>  <Rbt.Parameter_File>
/home/j5wagner/env_00/source/rDock/rDock_2013.1_src//data/scripts/dock.prm

>  <Rbt.Receptor>
/extra/banzai2/j5wagner/CELPP/2016_10_17_rdock_implementation/normal_run/tutorialVideo/tutorial_rdock_implementation/full_week_run/4-docking/5wrn/hiTanimoto_3hb8_tech_prep/rDockGridGenInput.prm

>  <SCORE>
-26.6835

>  <SCORE.INTER>
-15.9614

>  <SCORE.INTER.CONST>
1

>  <SCORE.INTER.POLAR>
-3.11351

>  <SCORE.INTER.REPUL>
0.000483891

>  <SCORE.INTER.ROT>
4

>  <SCORE.INTER.VDW>
-14.7779

>  <SCORE.INTER.norm>
-0.798072

>  <SCORE.INTRA>
2.83793

>  <SCORE.INTRA.DIHEDRAL>
6.10487

>  <SCORE.INTRA.DIHEDRAL.0>
8.98184

>  <SCORE.INTRA.POLAR>
0

>  <SCORE.INTRA.POLAR.0>
0

>  <SCORE.INTRA.REPUL>
0

>  <SCORE.INTRA.REPUL.0>
0

>  <SCORE.INTRA.VDW>
-0.214503

>  <SCORE.INTRA.VDW.0>
-1.60828

>  <SCORE.INTRA.norm>
0.141896

>  <SCORE.RESTR>
0.0721127

>  <SCORE.RESTR.CAVITY>
0.0721127

>  <SCORE.RESTR.norm>
0.00360564

>  <SCORE.SYSTEM>
-13.6321

>  <SCORE.SYSTEM.CONST>
0

>  <SCORE.SYSTEM.DIHEDRAL>
5.34701

>  <SCORE.SYSTEM.POLAR>
-4.25137

>  <SCORE.SYSTEM.REPUL>
0.0810355

>  <SCORE.SYSTEM.VDW>
-2.25607

>  <SCORE.SYSTEM.norm>
-0.681603

>  <SCORE.heavy>
20

>  <SCORE.norm>
-1.33417

$$$$

  rDOCK(R)          3D
libRbt.so/2013.1/901 2013/11/27
 25 26  0  0  0  0  0  0  0  0999 V2000
    4.0429   10.2829   12.0365 C   0  0  0  0  0  0
    2.8303   10.5071   12.7155 O   0  0  0  0  0  0
    4.6173   11.5411   11.4470 C   0  0  0  0  0  0
    6.1279   11.3175   11.5470 C   0  0  0  0  0  0
    6.7142   11.1115   10.2023 N   0  0  0  0  0  0
    7.1169   12.1898    9.4555 C   0  0  0  0  0  0
    7.6499   12.0203    8.1805 C   0  0  0  0  0  0
    7.7774   10.7277    7.6763 C   0  0  0  0  0  0
    8.2614   10.5159    6.4939 N   0  0  0  0  0  0
    7.3961    9.6764    8.4402 N   0  0  0  0  0  0
    6.8811    9.8433    9.6869 C   0  0  0  0  0  0
    6.5460    8.6947   10.4095 O   0  0  0  0  0  0
    6.3854   10.2101   12.3937 O   0  0  0  0  0  0
    5.1602    9.8049   12.9581 C   0  0  0  0  0  0
    5.1544    8.2804   13.1397 C   0  0  0  0  0  0
    5.9804    7.9047   14.2236 O   0  0  0  0  0  0
    5.3907    6.4728   14.9452 P   0  0  0  0  0  0
    6.5319    5.7134   15.5852 O   0  0  0  0  0  0
    4.2098    6.8243   16.1084 O   0  0  0  0  0  0
    4.6982    5.5056   13.7431 O   0  0  0  0  0  0
    2.5496    9.6561   13.1433 H   0  0  0  0  0  0
    8.5724   11.2931    5.8676 H   0  0  0  0  0  0
    6.9852    7.7940   10.2793 H   0  0  0  0  0  0
    4.6584    7.4146   16.7652 H   0  0  0  0  0  0
    3.7738    5.8480   13.6477 H   0  0  0  0  0  0
  1  2  1  0  0  0
  1  3  1  0  0  0
  3  4  1  0  0  0
  4  5  1  0  0  0
  5  6  1  0  0  0
  6  7  2  0  0  0
  7  8  1  0  0  0
  8  9  2  0  0  0
  8 10  1  0  0  0
 10 11  2  0  0  0
 11 12  1  0  0  0
  4 13  1  0  0  0
 13 14  1  0  0  0
 14 15  1  0  0  0
 15 16  1  0  0  0
 16 17  1  0  0  0
 17 18  2  0  0  0
 17 19  1  0  0  0
 17 20  1  0  0  0
 14  1  1  0  0  0
 11  5  1  0  0  0
  2 21  1  0  0  0
  9 22  1  0  0  0
 12 23  1  0  0  0
 19 24  1  0  0  0
 20 25  1  0  0  0
M  END
>  <CHROM.0>
165.75181765,-55.73579343,-53.84329874,-177.75226524,172.85553153,-177.44837375
-159.03327571,-160.17731762,-174.82362406,-64.75125403,137.38298684,-167.79124591

>  <CHROM.1>
-175.18852395,87.39412863,-152.51804319,-166.22346349,150.16052244,152.27122194
-58.59667000,-84.40608557,5.88194594,9.16723532,11.90345209,1.97297096,-0.80083675
2.46120828

>  <Name>

>  <RI>
3.49024e+07

>  <Rbt.Current_Directory>
/extra/banzai2/j5wagner/CELPP/2016_10_17_rdock_implementation/normal_run/tutorialVideo/tutorial_rdock_implementation/full_week_run/4-docking/5wrn/hiTanimoto_3hb8_docking

>  <Rbt.Executable>
rbdock ($Id: //depot/dev/client3/rdock/2013.1/src/exe/rbdock.cxx#4 $)

>  <Rbt.Library>
libRbt.so (2013.1, Build901 2013/11/27)

>  <Rbt.Parameter_File>
/home/j5wagner/env_00/source/rDock/rDock_2013.1_src//data/scripts/dock.prm

>  <Rbt.Receptor>
/extra/banzai2/j5wagner/CELPP/2016_10_17_rdock_implementation/normal_run/tutorialVideo/tutorial_rdock_implementation/full_week_run/4-docking/5wrn/hiTanimoto_3hb8_tech_prep/rDockGridGenInput.prm

>  <SCORE>
-11.0501

>  <SCORE.INTER>
1.24912

>  <SCORE.INTER.CONST>
1

>  <SCORE.INTER.POLAR>
-2.27558

>  <SCORE.INTER.REPUL>
0.0425978

>  <SCORE.INTER.ROT>
4

>  <SCORE.INTER.VDW>
-0.626904

>  <SCORE.INTER.norm>
0.0624561

>  <SCORE.INTRA>
0.473426

>  <SCORE.INTRA.DIHEDRAL>
0.608544

>  <SCORE.INTRA.DIHEDRAL.0>
8.98184

>  <SCORE.INTRA.POLAR>
0

>  <SCORE.INTRA.POLAR.0>
0

>  <SCORE.INTRA.REPUL>
0

>  <SCORE.INTRA.REPUL.0>
0

>  <SCORE.INTRA.VDW>
0.169154

>  <SCORE.INTRA.VDW.0>
-1.60828

>  <SCORE.INTRA.norm>
0.0236713

>  <SCORE.RESTR>
0

>  <SCORE.RESTR.CAVITY>
0

>  <SCORE.RESTR.norm>
0

>  <SCORE.SYSTEM>
-12.7727

>  <SCORE.SYSTEM.CONST>
0

>  <SCORE.SYSTEM.DIHEDRAL>
4.55957

>  <SCORE.SYSTEM.POLAR>
-4.25137

>  <SCORE.SYSTEM.REPUL>
0.0854376

>  <SCORE.SYSTEM.VDW>
-1.02496

>  <SCORE.SYSTEM.norm>
-0.638633

>  <SCORE.heavy>
20

>  <SCORE.norm>
-0.552506

$$$$

  rDOCK(R)          3D
libRbt.so/2013.1/901 2013/11/27
 25 26  0  0  0  0  0  0  0  0999 V2000
    3.6840    8.4876   14.1164 C   0  0  0  0  0  0
    2.5058    8.2416   14.8468 O   0  0  0  0  0  0
    3.6091    9.7517   13.3058 C   0  0  0  0  0  0
    5.0512   10.2637   13.3207 C   0  0  0  0  0  0
    5.6657   10.1286   11.9796 N   0  0  0  0  0  0
    6.4530    9.0427   11.6906 C   0  0  0  0  0  0
    7.0582    8.9070   10.4441 C   0  0  0  0  0  0
    6.8414    9.8945    9.4853 C   0  0  0  0  0  0
    7.3858    9.8189    8.3126 N   0  0  0  0  0  0
    6.0411   10.9455    9.7839 N   0  0  0  0  0  0
    5.4466   11.0736   10.9994 C   0  0  0  0  0  0
    4.6133   12.1775   11.2009 O   0  0  0  0  0  0
    5.7931    9.5546   14.2984 O   0  0  0  0  0  0
    4.8958    8.7339   15.0092 C   0  0  0  0  0  0
    5.5978    7.4295   15.4127 C   0  0  0  0  0  0
    4.6594    6.4852   15.8880 O   0  0  0  0  0  0
    4.4365    5.2442   14.7353 P   0  0  0  0  0  0
    4.2042    5.8494   13.3684 O   0  0  0  0  0  0
    5.7818    4.2151   14.6875 O   0  0  0  0  0  0
    3.0754    4.3392   15.1696 O   0  0  0  0  0  0
    2.6675    7.4698   15.4502 H   0  0  0  0  0  0
    8.0082    9.0268    8.0332 H   0  0  0  0  0  0
    4.6228   13.0082   10.6257 H   0  0  0  0  0  0
    5.4111    3.3079   14.5437 H   0  0  0  0  0  0
    3.1525    4.2259   16.1504 H   0  0  0  0  0  0
  1  2  1  0  0  0
  1  3  1  0  0  0
  3  4  1  0  0  0
  4  5  1  0  0  0
  5  6  1  0  0  0
  6  7  2  0  0  0
  7  8  1  0  0  0
  8  9  2  0  0  0
  8 10  1  0  0  0
 10 11  2  0  0  0
 11 12  1  0  0  0
  4 13  1  0  0  0
 13 14  1  0  0  0
 14 15  1  0  0  0
 15 16  1  0  0  0
 16 17  1  0  0  0
 17 18  2  0  0  0
 17 19  1  0  0  0
 17 20  1  0  0  0
 14  1  1  0  0  0
 11  5  1  0  0  0
  2 21  1  0  0  0
  9 22  1  0  0  0
 12 23  1  0  0  0
 19 24  1  0  0  0
 20 25  1  0  0  0
M  END
>  <CHROM.0>
168.87261422,-60.62762930,-57.16284580,-173.02389136,38.56459568,61.62232696
-149.90549642,-5.06506403,-179.63113984,55.22750018,-159.19236829,58.06110786

>  <CHROM.1>
-172.27309889,-96.92265041,162.34426369,-48.60842727,107.12363478,-48.40960248
142.83935947,-42.44128490,5.04262737,8.23764119,13.09876762,2.03567921,-0.94633165
2.77362325

>  <Name>

>  <RI>
3.49024e+07

>  <Rbt.Current_Directory>
/extra/banzai2/j5wagner/CELPP/2016_10_17_rdock_implementation/normal_run/tutorialVideo/tutorial_rdock_implementation/full_week_run/4-docking/5wrn/hiTanimoto_3hb8_docking

>  <Rbt.Executable>
rbdock ($Id: //depot/dev/client3/rdock/2013.1/src/exe/rbdock.cxx#4 $)

>  <Rbt.Library>
libRbt.so (2013.1, Build901 2013/11/27)

>  <Rbt.Parameter_File>
/home/j5wagner/env_00/source/rDock/rDock_2013.1_src//data/scripts/dock.prm

>  <Rbt.Receptor>
/extra/banzai2/j5wagner/CELPP/2016_10_17_rdock_implementation/normal_run/tutorialVideo/tutorial_rdock_implementation/full_week_run/4-docking/5wrn/hiTanimoto_3hb8_tech_prep/rDockGridGenInput.prm

>  <SCORE>
-29.9459

>  <SCORE.INTER>
-21.2905

>  <SCORE.INTER.CONST>
1

>  <SCORE.INTER.POLAR>
-2.68309

>  <SCORE.INTER.REPUL>
0

>  <SCORE.INTER.ROT>
4

>  <SCORE.INTER.VDW>
-21.568

>  <SCORE.INTER.norm>
-1.06452

>  <SCORE.INTRA>
0.604985

>  <SCORE.INTRA.DIHEDRAL>
3.47182

>  <SCORE.INTRA.DIHEDRAL.0>
8.98184

>  <SCORE.INTRA.POLAR>
-0.21825

>  <SCORE.INTRA.POLAR.0>
0

>  <SCORE.INTRA.REPUL>
0

>  <SCORE.INTRA.REPUL.0>
0

>  <SCORE.INTRA.VDW>
-0.388874

>  <SCORE.INTRA.VDW.0>
-1.60828

>  <SCORE.INTRA.norm>
0.0302493

>  <SCORE.RESTR>
0

>  <SCORE.RESTR.CAVITY>
0

>  <SCORE.RESTR.norm>
0

>  <SCORE.SYSTEM>
-9.26043

>  <SCORE.SYSTEM.CONST>
0

>  <SCORE.SYSTEM.DIHEDRAL>
7.85653

>  <SCORE.SYSTEM.POLAR>
-4.25137

>  <SCORE.SYSTEM.REPUL>
0.824285

>  <SCORE.SYSTEM.VDW>
-2.85545

>  <SCORE.SYSTEM.norm>
-0.463021

>  <SCORE.heavy>
20

>  <SCORE.norm>
-1.4973

$$$$

  rDOCK(R)          3D
libRbt.so/2013.1/901 2013/11/27
 25 26  0  0  0  0  0  0  0  0999 V2000
    4.9712    9.5336   14.4707 C   0  0  0  0  0  0
    5.0333    9.7034   15.8669 O   0  0  0  0  0  0
    6.3319    9.4701   13.8343 C   0  0  0  0  0  0
    6.1257    8.5094   12.6610 C   0  0  0  0  0  0
    6.1969    9.2376   11.3729 N   0  0  0  0  0  0
    7.0717    8.8274   10.3988 C   0  0  0  0  0  0
    7.1707    9.5105    9.1898 C   0  0  0  0  0  0
    6.3536   10.6195    8.9804 C   0  0  0  0  0  0
    6.4109   11.2933    7.8758 N   0  0  0  0  0  0
    5.4801   10.9924    9.9458 N   0  0  0  0  0  0
    5.3809   10.3210   11.1234 C   0  0  0  0  0  0
    4.4272   10.7638   12.0443 O   0  0  0  0  0  0
    4.8811    7.8470   12.8073 O   0  0  0  0  0  0
    4.3478    8.2032   14.0613 C   0  0  0  0  0  0
    2.8173    8.2802   13.9686 C   0  0  0  0  0  0
    2.3312    7.3780   12.9950 O   0  0  0  0  0  0
    0.6542    7.6079   12.7636 P   0  0  0  0  0  0
    0.2529    7.1121   11.3917 O   0  0  0  0  0  0
   -0.2371    6.7937   13.9526 O   0  0  0  0  0  0
    0.3145    9.2614   12.8669 O   0  0  0  0  0  0
    5.4509   10.5841   16.0564 H   0  0  0  0  0  0
    7.0656   11.0438    7.0999 H   0  0  0  0  0  0
    3.6203   10.2261   12.3287 H   0  0  0  0  0  0
    0.1414    7.0977   14.8160 H   0  0  0  0  0  0
    0.4601    9.4879   13.8200 H   0  0  0  0  0  0
  1  2  1  0  0  0
  1  3  1  0  0  0
  3  4  1  0  0  0
  4  5  1  0  0  0
  5  6  1  0  0  0
  6  7  2  0  0  0
  7  8  1  0  0  0
  8  9  2  0  0  0
  8 10  1  0  0  0
 10 11  2  0  0  0
 11 12  1  0  0  0
  4 13  1  0  0  0
 13 14  1  0  0  0
 14 15  1  0  0  0
 15 16  1  0  0  0
 16 17  1  0  0  0
 17 18  2  0  0  0
 17 19  1  0  0  0
 17 20  1  0  0  0
 14  1  1  0  0  0
 11  5  1  0  0  0
  2 21  1  0  0  0
  9 22  1  0  0  0
 12 23  1  0  0  0
 19 24  1  0  0  0
 20 25  1  0  0  0
M  END
>  <CHROM.0>
170.60140433,-55.05966698,-53.14220564,-60.37221526,-168.69821401,-178.36104413
-144.01725210,-171.39300070,-57.69025802,-66.36733098,-2.68575426,-154.35590930

>  <CHROM.1>
64.03846494,125.45552785,-64.97215415,149.81540008,-173.04133161,156.20390580
52.73460172,-69.23034520,3.96579948,8.94746075,12.24738857,-2.59653680,-0.33237590
-1.39893720

>  <Name>

>  <RI>
3.49024e+07

>  <Rbt.Current_Directory>
/extra/banzai2/j5wagner/CELPP/2016_10_17_rdock_implementation/normal_run/tutorialVideo/tutorial_rdock_implementation/full_week_run/4-docking/5wrn/hiTanimoto_3hb8_docking

>  <Rbt.Executable>
rbdock ($Id: //depot/dev/client3/rdock/2013.1/src/exe/rbdock.cxx#4 $)

>  <Rbt.Library>
libRbt.so (2013.1, Build901 2013/11/27)

>  <Rbt.Parameter_File>
/home/j5wagner/env_00/source/rDock/rDock_2013.1_src//data/scripts/dock.prm

>  <Rbt.Receptor>
/extra/banzai2/j5wagner/CELPP/2016_10_17_rdock_implementation/normal_run/tutorialVideo/tutorial_rdock_implementation/full_week_run/4-docking/5wrn/hiTanimoto_3hb8_tech_prep/rDockGridGenInput.prm

>  <SCORE>
-29.8804

>  <SCORE.INTER>
-17.1169

>  <SCORE.INTER.CONST>
1

>  <SCORE.INTER.POLAR>
-1.5785

>  <SCORE.INTER.REPUL>
0.012189

>  <SCORE.INTER.ROT>
4

>  <SCORE.INTER.VDW>
-21.2109

>  <SCORE.INTER.norm>
-0.855844

>  <SCORE.INTRA>
1.1485

>  <SCORE.INTRA.DIHEDRAL>
1.39151

>  <SCORE.INTRA.DIHEDRAL.0>
8.98184

>  <SCORE.INTRA.POLAR>
0

>  <SCORE.INTRA.POLAR.0>
0

>  <SCORE.INTRA.REPUL>
0

>  <SCORE.INTRA.REPUL.0>
0

>  <SCORE.INTRA.VDW>
0.452747

>  <SCORE.INTRA.VDW.0>
-1.60828

>  <SCORE.INTRA.norm>
0.0574252

>  <SCORE.RESTR>
0

>  <SCORE.RESTR.CAVITY>
0

>  <SCORE.RESTR.norm>
0

>  <SCORE.SYSTEM>
-13.912

>  <SCORE.SYSTEM.CONST>
0

>  <SCORE.SYSTEM.DIHEDRAL>
3.61592

>  <SCORE.SYSTEM.POLAR>
-4.24247

>  <SCORE.SYSTEM.REPUL>
0.0398018

>  <SCORE.SYSTEM.VDW>
-1.49461

>  <SCORE.SYSTEM.norm>
-0.695601

>  <SCORE.heavy>
20

>  <SCORE.norm>
-1.49402

$$$$

  rDOCK(R)          3D
libRbt.so/2013.1/901 2013/11/27
 25 26  0  0  0  0  0  0  0  0999 V2000
    3.0480    9.8276   13.2260 C   0  0  0  0  0  0
    1.9965   10.2978   14.0355 O   0  0  0  0  0  0
    4.1630   10.8267   13.0875 C   0  0  0  0  0  0
    5.4104    9.9470   12.9778 C   0  0  0  0  0  0
    5.9693   10.0043   11.6071 N   0  0  0  0  0  0
    6.7202    8.9612   11.1269 C   0  0  0  0  0  0
    7.2735    9.0039    9.8500 C   0  0  0  0  0  0
    7.0417   10.1273    9.0589 C   0  0  0  0  0  0
    7.5384   10.2194    7.8664 N   0  0  0  0  0  0
    6.2774   11.1347    9.5439 N   0  0  0  0  0  0
    5.7335   11.0889   10.7887 C   0  0  0  0  0  0
    4.9336   12.1636   11.1870 O   0  0  0  0  0  0
    5.0828    8.6170   13.3427 O   0  0  0  0  0  0
    3.7574    8.6146   13.8190 C   0  0  0  0  0  0
    3.0735    7.2943   13.4364 C   0  0  0  0  0  0
    4.0359    6.2933   13.1717 O   0  0  0  0  0  0
    4.6188    5.6342   14.6361 P   0  0  0  0  0  0
    5.5168    4.4520   14.3451 O   0  0  0  0  0  0
    5.4705    6.7980   15.5258 O   0  0  0  0  0  0
    3.3012    5.1052   15.5548 O   0  0  0  0  0  0
    1.6644   11.1513   13.6519 H   0  0  0  0  0  0
    8.1316    9.4680    7.4463 H   0  0  0  0  0  0
    4.8090   13.0089   10.6476 H   0  0  0  0  0  0
    5.8031    7.4467   14.8553 H   0  0  0  0  0  0
    3.6268    5.1177   16.4901 H   0  0  0  0  0  0
  1  2  1  0  0  0
  1  3  1  0  0  0
  3  4  1  0  0  0
  4  5  1  0  0  0
  5  6  1  0  0  0
  6  7  2  0  0  0
  7  8  1  0  0  0
  8  9  2  0  0  0
  8 10  1  0  0  0
 10 11  2  0  0  0
 11 12  1  0  0  0
  4 13  1  0  0  0
 13 14  1  0  0  0
 14 15  1  0  0  0
 15 16  1  0  0  0
 16 17  1  0  0  0
 17 18  2  0  0  0
 17 19  1  0  0  0
 17 20  1  0  0  0
 14  1  1  0  0  0
 11  5  1  0  0  0
  2 21  1  0  0  0
  9 22  1  0  0  0
 12 23  1  0  0  0
 19 24  1  0  0  0
 20 25  1  0  0  0
M  END
>  <CHROM.0>
168.79808100,-175.41053700,-54.11559684,65.19618588,-162.61745595,65.13630791
-146.17668034,7.42766550,-59.64296954,60.07475477,-158.78775886,-171.24598981

>  <CHROM.1>
56.78352373,-154.62781731,174.18670048,141.04223927,79.81272555,173.05216829
-25.69516086,-155.77033823,4.96731189,8.56897353,12.63836271,1.99666910,-0.75467273
2.64841008

>  <Name>

>  <RI>
3.49024e+07

>  <Rbt.Current_Directory>
/extra/banzai2/j5wagner/CELPP/2016_10_17_rdock_implementation/normal_run/tutorialVideo/tutorial_rdock_implementation/full_week_run/4-docking/5wrn/hiTanimoto_3hb8_docking

>  <Rbt.Executable>
rbdock ($Id: //depot/dev/client3/rdock/2013.1/src/exe/rbdock.cxx#4 $)

>  <Rbt.Library>
libRbt.so (2013.1, Build901 2013/11/27)

>  <Rbt.Parameter_File>
/home/j5wagner/env_00/source/rDock/rDock_2013.1_src//data/scripts/dock.prm

>  <Rbt.Receptor>
/extra/banzai2/j5wagner/CELPP/2016_10_17_rdock_implementation/normal_run/tutorialVideo/tutorial_rdock_implementation/full_week_run/4-docking/5wrn/hiTanimoto_3hb8_tech_prep/rDockGridGenInput.prm

>  <SCORE>
-28.3069

>  <SCORE.INTER>
-21.0396

>  <SCORE.INTER.CONST>
1

>  <SCORE.INTER.POLAR>
-2.16117

>  <SCORE.INTER.REPUL>
0

>  <SCORE.INTER.ROT>
4

>  <SCORE.INTER.VDW>
-23.0916

>  <SCORE.INTER.norm>
-1.05198

>  <SCORE.INTRA>
3.70013

>  <SCORE.INTRA.DIHEDRAL>
1.574

>  <SCORE.INTRA.DIHEDRAL.0>
8.98184

>  <SCORE.INTRA.POLAR>
-0.785294

>  <SCORE.INTRA.POLAR.0>
0

>  <SCORE.INTRA.REPUL>
0

>  <SCORE.INTRA.REPUL.0>
0

>  <SCORE.INTRA.VDW>
5.58313

>  <SCORE.INTRA.VDW.0>
-1.60828

>  <SCORE.INTRA.norm>
0.185007

>  <SCORE.RESTR>
0

>  <SCORE.RESTR.CAVITY>
0

>  <SCORE.RESTR.norm>
0

>  <SCORE.SYSTEM>
-10.9674

>  <SCORE.SYSTEM.CONST>
0

>  <SCORE.SYSTEM.DIHEDRAL>
3.48565

>  <SCORE.SYSTEM.POLAR>
-4.24575

>  <SCORE.SYSTEM.REPUL>
0.731396

>  <SCORE.SYSTEM.VDW>
-1.93169

>  <SCORE.SYSTEM.norm>
-0.548372

>  <SCORE.heavy>
20

>  <SCORE.norm>
-1.41534

$$$$

  rDOCK(R)          3D
libRbt.so/2013.1/901 2013/11/27
 25 26  0  0  0  0  0  0  0  0999 V2000
    2.8557    9.0613   13.4631 C   0  0  0  0  0  0
    1.5924    9.2100   14.0664 O   0  0  0  0  0  0
    3.4203   10.3659   12.9733 C   0  0  0  0  0  0
    4.9282   10.1902   13.1671 C   0  0  0  0  0  0
    5.6111   10.0703   11.8580 N   0  0  0  0  0  0
    6.3821    8.9691   11.5834 C   0  0  0  0  0  0
    7.0505    8.8465   10.3682 C   0  0  0  0  0  0
    6.9143    9.8634    9.4255 C   0  0  0  0  0  0
    7.5197    9.8008    8.2823 N   0  0  0  0  0  0
    6.1288   10.9298    9.7080 N   0  0  0  0  0  0
    5.4726   11.0453   10.8926 C   0  0  0  0  0  0
    4.6609   12.1680   11.0779 O   0  0  0  0  0  0
    5.1698    9.0527   13.9776 O   0  0  0  0  0  0
    3.9257    8.5782   14.4367 C   0  0  0  0  0  0
    3.9656    7.0474   14.5469 C   0  0  0  0  0  0
    2.6888    6.5383   14.8766 O   0  0  0  0  0  0
    2.8405    5.0240   15.6530 P   0  0  0  0  0  0
    1.4709    4.4199   15.8712 O   0  0  0  0  0  0
    3.7955    3.9674   14.7350 O   0  0  0  0  0  0
    3.5796    5.2573   17.1562 O   0  0  0  0  0  0
    1.6860    9.8253   14.8400 H   0  0  0  0  0  0
    8.1339    8.9978    8.0160 H   0  0  0  0  0  0
    4.6774   12.9846   10.4829 H   0  0  0  0  0  0
    3.7975    3.1141   15.2381 H   0  0  0  0  0  0
    4.3492    5.8515   16.9674 H   0  0  0  0  0  0
  1  2  1  0  0  0
  1  3  1  0  0  0
  3  4  1  0  0  0
  4  5  1  0  0  0
  5  6  1  0  0  0
  6  7  2  0  0  0
  7  8  1  0  0  0
  8  9  2  0  0  0
  8 10  1  0  0  0
 10 11  2  0  0  0
 11 12  1  0  0  0
  4 13  1  0  0  0
 13 14  1  0  0  0
 14 15  1  0  0  0
 15 16  1  0  0  0
 16 17  1  0  0  0
 17 18  2  0  0  0
 17 19  1  0  0  0
 17 20  1  0  0  0
 14  1  1  0  0  0
 11  5  1  0  0  0
  2 21  1  0  0  0
  9 22  1  0  0  0
 12 23  1  0  0  0
 19 24  1  0  0  0
 20 25  1  0  0  0
M  END
>  <CHROM.0>
167.33664257,-60.49014678,-56.50311126,73.54333814,59.01112056,-66.48402164
-145.92359060,15.68054033,-58.96464832,55.89754213,-159.14355413,54.77356976

>  <CHROM.1>
-59.82213343,-123.25591688,167.13848921,-54.34616895,-155.15865100,-174.07717748
-177.77241890,-46.54277104,4.32157142,8.22771721,13.17573465,2.15734206,-0.74459358
2.76098162

>  <Name>

>  <RI>
3.49024e+07

>  <Rbt.Current_Directory>
/extra/banzai2/j5wagner/CELPP/2016_10_17_rdock_implementation/normal_run/tutorialVideo/tutorial_rdock_implementation/full_week_run/4-docking/5wrn/hiTanimoto_3hb8_docking

>  <Rbt.Executable>
rbdock ($Id: //depot/dev/client3/rdock/2013.1/src/exe/rbdock.cxx#4 $)

>  <Rbt.Library>
libRbt.so (2013.1, Build901 2013/11/27)

>  <Rbt.Parameter_File>
/home/j5wagner/env_00/source/rDock/rDock_2013.1_src//data/scripts/dock.prm

>  <Rbt.Receptor>
/extra/banzai2/j5wagner/CELPP/2016_10_17_rdock_implementation/normal_run/tutorialVideo/tutorial_rdock_implementation/full_week_run/4-docking/5wrn/hiTanimoto_3hb8_tech_prep/rDockGridGenInput.prm

>  <SCORE>
-22.7097

>  <SCORE.INTER>
-13.4706

>  <SCORE.INTER.CONST>
1

>  <SCORE.INTER.POLAR>
-1.31599

>  <SCORE.INTER.REPUL>
0.00389007

>  <SCORE.INTER.ROT>
4

>  <SCORE.INTER.VDW>
-18.4156

>  <SCORE.INTER.norm>
-0.673528

>  <SCORE.INTRA>
-0.447152

>  <SCORE.INTRA.DIHEDRAL>
-3.13774

>  <SCORE.INTRA.DIHEDRAL.0>
8.98184

>  <SCORE.INTRA.POLAR>
0

>  <SCORE.INTRA.POLAR.0>
0

>  <SCORE.INTRA.REPUL>
0

>  <SCORE.INTRA.REPUL.0>
0

>  <SCORE.INTRA.VDW>
1.12172

>  <SCORE.INTRA.VDW.0>
-1.60828

>  <SCORE.INTRA.norm>
-0.0223576

>  <SCORE.RESTR>
0.304515

>  <SCORE.RESTR.CAVITY>
0.304515

>  <SCORE.RESTR.norm>
0.0152257

>  <SCORE.SYSTEM>
-9.09645

>  <SCORE.SYSTEM.CONST>
0

>  <SCORE.SYSTEM.DIHEDRAL>
10.7514

>  <SCORE.SYSTEM.POLAR>
-4.24461

>  <SCORE.SYSTEM.REPUL>
0.738719

>  <SCORE.SYSTEM.VDW>
-3.7341

>  <SCORE.SYSTEM.norm>
-0.454822

>  <SCORE.heavy>
20

>  <SCORE.norm>
-1.13548

$$$$

  rDOCK(R)          3D
libRbt.so/2013.1/901 2013/11/27
 25 26  0  0  0  0  0  0  0  0999 V2000
    2.8436    9.8656   13.4595 C   0  0  0  0  0  0
    2.5436   11.1559   12.9831 O   0  0  0  0  0  0
    3.8145    9.8837   14.6073 C   0  0  0  0  0  0
    3.3749    8.6895   15.4574 C   0  0  0  0  0  0
    4.3774    7.6013   15.3848 N   0  0  0  0  0  0
    5.1231    7.2788   16.4904 C   0  0  0  0  0  0
    6.0862    6.2747   16.4381 C   0  0  0  0  0  0
    6.2741    5.5914   15.2384 C   0  0  0  0  0  0
    7.1609    4.6532   15.1351 N   0  0  0  0  0  0
    5.5102    5.9096   14.1663 N   0  0  0  0  0  0
    4.5667    6.8864   14.2208 C   0  0  0  0  0  0
    3.8074    7.1197   13.0706 O   0  0  0  0  0  0
    2.1019    8.2438   15.0214 O   0  0  0  0  0  0
    1.6326    9.1565   14.0569 C   0  0  0  0  0  0
    0.8117    8.4100   12.9957 C   0  0  0  0  0  0
    0.1115    7.3286   13.5774 O   0  0  0  0  0  0
   -1.5731    7.5924   13.4722 P   0  0  0  0  0  0
   -1.9272    8.1034   12.0930 O   0  0  0  0  0  0
   -2.4294    6.1661   13.7942 O   0  0  0  0  0  0
   -2.0115    8.7591   14.6154 O   0  0  0  0  0  0
    3.3790   11.5613   12.6314 H   0  0  0  0  0  0
    7.7725    4.3690   15.9339 H   0  0  0  0  0  0
    3.8285    6.5333   12.2480 H   0  0  0  0  0  0
   -2.0296    5.8039   14.6249 H   0  0  0  0  0  0
   -1.6208    8.4355   15.4659 H   0  0  0  0  0  0
  1  2  1  0  0  0
  1  3  1  0  0  0
  3  4  1  0  0  0
  4  5  1  0  0  0
  5  6  1  0  0  0
  6  7  2  0  0  0
  7  8  1  0  0  0
  8  9  2  0  0  0
  8 10  1  0  0  0
 10 11  2  0  0  0
 11 12  1  0  0  0
  4 13  1  0  0  0
 13 14  1  0  0  0
 14 15  1  0  0  0
 15 16  1  0  0  0
 16 17  1  0  0  0
 17 18  2  0  0  0
 17 19  1  0  0  0
 17 20  1  0  0  0
 14  1  1  0  0  0
 11  5  1  0  0  0
  2 21  1  0  0  0
  9 22  1  0  0  0
 12 23  1  0  0  0
 19 24  1  0  0  0
 20 25  1  0  0  0
M  END
>  <CHROM.0>
166.98837729,-177.86713420,-53.59485240,65.40822074,-167.48962958,-57.99616962
-171.93177654,9.38726057,-59.52603368,-178.69090283,3.95017864,-166.01514349

>  <CHROM.1>
62.89907746,111.63781684,-171.01925466,153.73286124,115.13985321,44.04716986
48.25961685,-51.26494890,2.21311184,7.74828000,14.21311500,-0.23700817,-0.20466408
-0.17689842

>  <Name>

>  <RI>
3.49024e+07

>  <Rbt.Current_Directory>
/extra/banzai2/j5wagner/CELPP/2016_10_17_rdock_implementation/normal_run/tutorialVideo/tutorial_rdock_implementation/full_week_run/4-docking/5wrn/hiTanimoto_3hb8_docking

>  <Rbt.Executable>
rbdock ($Id: //depot/dev/client3/rdock/2013.1/src/exe/rbdock.cxx#4 $)

>  <Rbt.Library>
libRbt.so (2013.1, Build901 2013/11/27)

>  <Rbt.Parameter_File>
/home/j5wagner/env_00/source/rDock/rDock_2013.1_src//data/scripts/dock.prm

>  <Rbt.Receptor>
/extra/banzai2/j5wagner/CELPP/2016_10_17_rdock_implementation/normal_run/tutorialVideo/tutorial_rdock_implementation/full_week_run/4-docking/5wrn/hiTanimoto_3hb8_tech_prep/rDockGridGenInput.prm

>  <SCORE>
-22.7159

>  <SCORE.INTER>
-11.2783

>  <SCORE.INTER.CONST>
1

>  <SCORE.INTER.POLAR>
-2.17974

>  <SCORE.INTER.REPUL>
0.348137

>  <SCORE.INTER.ROT>
4

>  <SCORE.INTER.VDW>
-15.0079

>  <SCORE.INTER.norm>
-0.563916

>  <SCORE.INTRA>
1.49299

>  <SCORE.INTRA.DIHEDRAL>
3.50394

>  <SCORE.INTRA.DIHEDRAL.0>
8.98184

>  <SCORE.INTRA.POLAR>
0

>  <SCORE.INTRA.POLAR.0>
0

>  <SCORE.INTRA.REPUL>
0.0192335

>  <SCORE.INTRA.REPUL.0>
0

>  <SCORE.INTRA.VDW>
-0.355151

>  <SCORE.INTRA.VDW.0>
-1.60828

>  <SCORE.INTRA.norm>
0.0746494

>  <SCORE.RESTR>
0.342582

>  <SCORE.RESTR.CAVITY>
0.342582

>  <SCORE.RESTR.norm>
0.0171291

>  <SCORE.SYSTEM>
-13.2731

>  <SCORE.SYSTEM.CONST>
0

>  <SCORE.SYSTEM.DIHEDRAL>
1.5045

>  <SCORE.SYSTEM.POLAR>
-4.24555

>  <SCORE.SYSTEM.VDW>
0.409505

>  <SCORE.SYSTEM.norm>
-0.663656

>  <SCORE.heavy>
20

>  <SCORE.norm>
-1.13579

$$$$

  rDOCK(R)          3D
libRbt.so/2013.1/901 2013/11/27
 25 26  0  0  0  0  0  0  0  0999 V2000
    4.1751   11.1396   14.1205 C   0  0  0  0  0  0
    4.2584   12.4493   14.6302 O   0  0  0  0  0  0
    3.4696   10.1980   15.0565 C   0  0  0  0  0  0
    2.7620    9.2265   14.1092 C   0  0  0  0  0  0
    3.3937    7.8880   14.1685 N   0  0  0  0  0  0
    2.7415    6.8466   14.7790 C   0  0  0  0  0  0
    3.3263    5.5861   14.8656 C   0  0  0  0  0  0
    4.5896    5.3963   14.3092 C   0  0  0  0  0  0
    5.1800    4.2451   14.3679 N   0  0  0  0  0  0
    5.2048    6.4318   13.6900 N   0  0  0  0  0  0
    4.6300    7.6603   13.6016 C   0  0  0  0  0  0
    5.3305    8.6563   12.9154 O   0  0  0  0  0  0
    2.7898    9.7487   12.7916 O   0  0  0  0  0  0
    3.3304   11.0477   12.8539 C   0  0  0  0  0  0
    4.1487   11.3280   11.5855 C   0  0  0  0  0  0
    5.4600   10.8162   11.7154 O   0  0  0  0  0  0
    6.1107   10.4649   10.1754 P   0  0  0  0  0  0
    6.7880    9.1123   10.2010 O   0  0  0  0  0  0
    4.8999   10.4793    8.9901 O   0  0  0  0  0  0
    7.2610   11.6436    9.7912 O   0  0  0  0  0  0
    3.3387   12.7660   14.8299 H   0  0  0  0  0  0
    4.7456    3.4149   14.8318 H   0  0  0  0  0  0
    5.9923    8.4761   12.1733 H   0  0  0  0  0  0
    4.8293    9.5418    8.6781 H   0  0  0  0  0  0
    6.8235   12.5032   10.0160 H   0  0  0  0  0  0
  1  2  1  0  0  0
  1  3  1  0  0  0
  3  4  1  0  0  0
  4  5  1  0  0  0
  5  6  1  0  0  0
  6  7  2  0  0  0
  7  8  1  0  0  0
  8  9  2  0  0  0
  8 10  1  0  0  0
 10 11  2  0  0  0
 11 12  1  0  0  0
  4 13  1  0  0  0
 13 14  1  0  0  0
 14 15  1  0  0  0
 15 16  1  0  0  0
 16 17  1  0  0  0
 17 18  2  0  0  0
 17 19  1  0  0  0
 17 20  1  0  0  0
 14  1  1  0  0  0
 11  5  1  0  0  0
  2 21  1  0  0  0
  9 22  1  0  0  0
 12 23  1  0  0  0
 19 24  1  0  0  0
 20 25  1  0  0  0
M  END
>  <CHROM.0>
46.32239271,-56.01473380,-54.93447381,-173.93210813,50.68727573,59.72457943
-141.44989488,14.78084184,78.97880479,167.66250569,15.82283184,-170.81549803

>  <CHROM.1>
-56.68242833,107.97402212,-152.16623271,35.79713776,153.87769219,-134.91986155
-113.37381021,-46.35990222,4.64533165,9.20342342,12.67541523,1.07004319,0.94378580
-0.28772996

>  <Name>

>  <RI>
3.49024e+07

>  <Rbt.Current_Directory>
/extra/banzai2/j5wagner/CELPP/2016_10_17_rdock_implementation/normal_run/tutorialVideo/tutorial_rdock_implementation/full_week_run/4-docking/5wrn/hiTanimoto_3hb8_docking

>  <Rbt.Executable>
rbdock ($Id: //depot/dev/client3/rdock/2013.1/src/exe/rbdock.cxx#4 $)

>  <Rbt.Library>
libRbt.so (2013.1, Build901 2013/11/27)

>  <Rbt.Parameter_File>
/home/j5wagner/env_00/source/rDock/rDock_2013.1_src//data/scripts/dock.prm

>  <Rbt.Receptor>
/extra/banzai2/j5wagner/CELPP/2016_10_17_rdock_implementation/normal_run/tutorialVideo/tutorial_rdock_implementation/full_week_run/4-docking/5wrn/hiTanimoto_3hb8_tech_prep/rDockGridGenInput.prm

>  <SCORE>
-24.4292

>  <SCORE.INTER>
-18.4801

>  <SCORE.INTER.CONST>
1

>  <SCORE.INTER.POLAR>
-2.29591

>  <SCORE.INTER.REPUL>
0

>  <SCORE.INTER.ROT>
4

>  <SCORE.INTER.VDW>
-20.074

>  <SCORE.INTER.norm>
-0.924005

>  <SCORE.INTRA>
1.15231

>  <SCORE.INTRA.DIHEDRAL>
3.96675

>  <SCORE.INTRA.DIHEDRAL.0>
8.98184

>  <SCORE.INTRA.POLAR>
-0.306035

>  <SCORE.INTRA.POLAR.0>
0

>  <SCORE.INTRA.REPUL>
0.0159857

>  <SCORE.INTRA.REPUL.0>
0

>  <SCORE.INTRA.VDW>
0.12953

>  <SCORE.INTRA.VDW.0>
-1.60828

>  <SCORE.INTRA.norm>
0.0576156

>  <SCORE.RESTR>
0

>  <SCORE.RESTR.CAVITY>
0

>  <SCORE.RESTR.norm>
0

>  <SCORE.SYSTEM>
-7.10141

>  <SCORE.SYSTEM.CONST>
0

>  <SCORE.SYSTEM.DIHEDRAL>
10.7166

>  <SCORE.SYSTEM.POLAR>
-3.16268

>  <SCORE.SYSTEM.REPUL>
0.0574643

>  <SCORE.SYSTEM.VDW>
-1.99391

>  <SCORE.SYSTEM.norm>
-0.355071

>  <SCORE.heavy>
20

>  <SCORE.norm>
-1.22146

$$$$

  rDOCK(R)          3D
libRbt.so/2013.1/901 2013/11/27
 25 26  0  0  0  0  0  0  0  0999 V2000
    3.4865    8.0154   13.9121 C   0  0  0  0  0  0
    2.6279    7.4507   12.9500 O   0  0  0  0  0  0
    4.2521    6.9775   14.6850 C   0  0  0  0  0  0
    5.5865    7.6688   14.9738 C   0  0  0  0  0  0
    5.7052    7.9909   16.4148 N   0  0  0  0  0  0
    5.3275    9.2266   16.8762 C   0  0  0  0  0  0
    5.4514    9.5580   18.2228 C   0  0  0  0  0  0
    5.9596    8.6036   19.1015 C   0  0  0  0  0  0
    6.1006    8.8634   20.3624 N   0  0  0  0  0  0
    6.3034    7.3820   18.6286 N   0  0  0  0  0  0
    6.1767    7.0583   17.3146 C   0  0  0  0  0  0
    6.5288    5.7617   16.9290 O   0  0  0  0  0  0
    5.6947    8.8361   14.1769 O   0  0  0  0  0  0
    4.5969    8.8594   13.2949 C   0  0  0  0  0  0
    4.1598   10.3112   13.0526 C   0  0  0  0  0  0
    3.3690   10.4049   11.8847 O   0  0  0  0  0  0
    4.2822   11.0770   10.6069 P   0  0  0  0  0  0
    5.4949   10.2145   10.3341 O   0  0  0  0  0  0
    3.3457   11.2133    9.2014 O   0  0  0  0  0  0
    4.8021   12.6197   11.0652 O   0  0  0  0  0  0
    2.0597    8.1736   12.5753 H   0  0  0  0  0  0
    5.8470    9.7893   20.7761 H   0  0  0  0  0  0
    6.5585    5.4430   15.9706 H   0  0  0  0  0  0
    3.9980   11.2854    8.4595 H   0  0  0  0  0  0
    5.2052   13.0019   10.2453 H   0  0  0  0  0  0
  1  2  1  0  0  0
  1  3  1  0  0  0
  3  4  1  0  0  0
  4  5  1  0  0  0
  5  6  1  0  0  0
  6  7  2  0  0  0
  7  8  1  0  0  0
  8  9  2  0  0  0
  8 10  1  0  0  0
 10 11  2  0  0  0
 11 12  1  0  0  0
  4 13  1  0  0  0
 13 14  1  0  0  0
 14 15  1  0  0  0
 15 16  1  0  0  0
 16 17  1  0  0  0
 17 18  2  0  0  0
 17 19  1  0  0  0
 17 20  1  0  0  0
 14  1  1  0  0  0
 11  5  1  0  0  0
  2 21  1  0  0  0
  9 22  1  0  0  0
 12 23  1  0  0  0
 19 24  1  0  0  0
 20 25  1  0  0  0
M  END
>  <CHROM.0>
160.20498316,-60.57959868,-56.41217816,-178.44922239,45.59746846,-178.10752041
-148.57818993,9.41109540,-59.73029419,-64.21959356,6.75082263,171.20919386

>  <CHROM.1>
171.67181611,-93.82897983,6.64057118,-78.66595111,-104.25197281,59.03591811
-160.02207178,-172.02560658,4.88929692,9.07983381,14.29143171,2.29017102
-1.22705428,-0.49437544

>  <Name>

>  <RI>
3.49024e+07

>  <Rbt.Current_Directory>
/extra/banzai2/j5wagner/CELPP/2016_10_17_rdock_implementation/normal_run/tutorialVideo/tutorial_rdock_implementation/full_week_run/4-docking/5wrn/hiTanimoto_3hb8_docking

>  <Rbt.Executable>
rbdock ($Id: //depot/dev/client3/rdock/2013.1/src/exe/rbdock.cxx#4 $)

>  <Rbt.Library>
libRbt.so (2013.1, Build901 2013/11/27)

>  <Rbt.Parameter_File>
/home/j5wagner/env_00/source/rDock/rDock_2013.1_src//data/scripts/dock.prm

>  <Rbt.Receptor>
/extra/banzai2/j5wagner/CELPP/2016_10_17_rdock_implementation/normal_run/tutorialVideo/tutorial_rdock_implementation/full_week_run/4-docking/5wrn/hiTanimoto_3hb8_tech_prep/rDockGridGenInput.prm

>  <SCORE>
-30.1108

>  <SCORE.INTER>
-16.9374

>  <SCORE.INTER.CONST>
1

>  <SCORE.INTER.POLAR>
-2.59563

>  <SCORE.INTER.REPUL>
0.788755

>  <SCORE.INTER.ROT>
4

>  <SCORE.INTER.VDW>
-21.4561

>  <SCORE.INTER.norm>
-0.846872

>  <SCORE.INTRA>
0.611281

>  <SCORE.INTRA.DIHEDRAL>
1.88141

>  <SCORE.INTRA.DIHEDRAL.0>
8.98184

>  <SCORE.INTRA.POLAR>
0

>  <SCORE.INTRA.POLAR.0>
0

>  <SCORE.INTRA.REPUL>
0

>  <SCORE.INTRA.REPUL.0>
0

>  <SCORE.INTRA.VDW>
-0.329423

>  <SCORE.INTRA.VDW.0>
-1.60828

>  <SCORE.INTRA.norm>
0.0305641

>  <SCORE.RESTR>
0

>  <SCORE.RESTR.CAVITY>
0

>  <SCORE.RESTR.norm>
0

>  <SCORE.SYSTEM>
-13.7847

>  <SCORE.SYSTEM.CONST>
0

>  <SCORE.SYSTEM.DIHEDRAL>
4.92449

>  <SCORE.SYSTEM.POLAR>
-4.2459

>  <SCORE.SYSTEM.REPUL>
0.144762

>  <SCORE.SYSTEM.VDW>
-2.53467

>  <SCORE.SYSTEM.norm>
-0.689233

>  <SCORE.heavy>
20

>  <SCORE.norm>
-1.50554

$$$$

  rDOCK(R)          3D
libRbt.so/2013.1/901 2013/11/27
 25 26  0  0  0  0  0  0  0  0999 V2000
    4.3327    8.1290   13.3036 C   0  0  0  0  0  0
    5.6849    7.7828   13.1201 O   0  0  0  0  0  0
    3.7049    7.4133   14.4674 C   0  0  0  0  0  0
    2.6970    8.4326   15.0035 C   0  0  0  0  0  0
    1.3107    7.9878   14.7299 N   0  0  0  0  0  0
    0.8531    6.8041   15.2515 C   0  0  0  0  0  0
   -0.4387    6.3563   14.9887 C   0  0  0  0  0  0
   -1.2679    7.1408   14.1897 C   0  0  0  0  0  0
   -2.4759    6.7669   13.9102 N   0  0  0  0  0  0
   -0.8038    8.3173   13.7053 N   0  0  0  0  0  0
    0.4559    8.7555   13.9674 C   0  0  0  0  0  0
    0.8317    9.9977   13.4482 O   0  0  0  0  0  0
    2.9531    9.6996   14.4217 O   0  0  0  0  0  0
    4.1398    9.5969   13.6700 C   0  0  0  0  0  0
    4.0465   10.4997   12.4317 C   0  0  0  0  0  0
    5.2417   10.4385   11.6794 O   0  0  0  0  0  0
    4.9975   11.1135   10.1292 P   0  0  0  0  0  0
    4.7811   10.0099    9.1173 O   0  0  0  0  0  0
    3.6666   12.1623   10.1295 O   0  0  0  0  0  0
    6.3784   11.9883    9.6953 O   0  0  0  0  0  0
    6.1824    8.0168   13.9469 H   0  0  0  0  0  0
   -2.8811    5.8698   14.2623 H   0  0  0  0  0  0
    1.6783   10.4868   13.7034 H   0  0  0  0  0  0
    4.0286   13.0427   10.4031 H   0  0  0  0  0  0
    6.4477   12.7019   10.3785 H   0  0  0  0  0  0
  1  2  1  0  0  0
  1  3  1  0  0  0
  3  4  1  0  0  0
  4  5  1  0  0  0
  5  6  1  0  0  0
  6  7  2  0  0  0
  7  8  1  0  0  0
  8  9  2  0  0  0
  8 10  1  0  0  0
 10 11  2  0  0  0
 11 12  1  0  0  0
  4 13  1  0  0  0
 13 14  1  0  0  0
 14 15  1  0  0  0
 15 16  1  0  0  0
 16 17  1  0  0  0
 17 18  2  0  0  0
 17 19  1  0  0  0
 17 20  1  0  0  0
 14  1  1  0  0  0
 11  5  1  0  0  0
  2 21  1  0  0  0
  9 22  1  0  0  0
 12 23  1  0  0  0
 19 24  1  0  0  0
 20 25  1  0  0  0
M  END
>  <CHROM.0>
169.43628395,62.05405323,-52.98221544,-60.60187312,44.68137943,59.46418216
-148.97912019,10.03705976,-179.14046992,55.40160453,-173.08054425,62.73924254

>  <CHROM.1>
-59.53184466,60.59099622,-10.03332147,-61.70468156,165.74652310,-99.75684370
87.10463501,-61.85330098,2.81627724,9.19666692,12.79778747,-0.78439221,0.03527241
2.26296989

>  <Name>

>  <RI>
3.49024e+07

>  <Rbt.Current_Directory>
/extra/banzai2/j5wagner/CELPP/2016_10_17_rdock_implementation/normal_run/tutorialVideo/tutorial_rdock_implementation/full_week_run/4-docking/5wrn/hiTanimoto_3hb8_docking

>  <Rbt.Executable>
rbdock ($Id: //depot/dev/client3/rdock/2013.1/src/exe/rbdock.cxx#4 $)

>  <Rbt.Library>
libRbt.so (2013.1, Build901 2013/11/27)

>  <Rbt.Parameter_File>
/home/j5wagner/env_00/source/rDock/rDock_2013.1_src//data/scripts/dock.prm

>  <Rbt.Receptor>
/extra/banzai2/j5wagner/CELPP/2016_10_17_rdock_implementation/normal_run/tutorialVideo/tutorial_rdock_implementation/full_week_run/4-docking/5wrn/hiTanimoto_3hb8_tech_prep/rDockGridGenInput.prm

>  <SCORE>
-30.2277

>  <SCORE.INTER>
-19.9133

>  <SCORE.INTER.CONST>
1

>  <SCORE.INTER.POLAR>
-3.56791

>  <SCORE.INTER.REPUL>
0

>  <SCORE.INTER.ROT>
4

>  <SCORE.INTER.VDW>
-17.1824

>  <SCORE.INTER.norm>
-0.995663

>  <SCORE.INTRA>
-0.672765

>  <SCORE.INTRA.DIHEDRAL>
-2.59745

>  <SCORE.INTRA.DIHEDRAL.0>
8.98184

>  <SCORE.INTRA.POLAR>
-0.430174

>  <SCORE.INTRA.POLAR.0>
0

>  <SCORE.INTRA.REPUL>
0

>  <SCORE.INTRA.REPUL.0>
0

>  <SCORE.INTRA.VDW>
2.08855

>  <SCORE.INTRA.VDW.0>
-1.60828

>  <SCORE.INTRA.norm>
-0.0336383

>  <SCORE.RESTR>
0.0733628

>  <SCORE.RESTR.CAVITY>
0.0733628

>  <SCORE.RESTR.norm>
0.00366814

>  <SCORE.SYSTEM>
-9.71502

>  <SCORE.SYSTEM.CONST>
0

>  <SCORE.SYSTEM.DIHEDRAL>
8.31735

>  <SCORE.SYSTEM.POLAR>
-4.25137

>  <SCORE.SYSTEM.REPUL>
0.785847

>  <SCORE.SYSTEM.VDW>
-3.34826

>  <SCORE.SYSTEM.norm>
-0.485751

>  <SCORE.heavy>
20

>  <SCORE.norm>
-1.51138

$$$$
