
 OpenBabel12121610303D
libRbt.so/2013.1/901 2013/11/27
 25 26  0  0  1  0  0  0  0  0999 V2000
   -4.2715   -3.3777   13.7870 C   0  0  1  0  0  0  0  0  0  0  0  0
   -5.1795   -3.9837   12.8980 O   0  0  0  0  0  0  0  0  0  0  0  0
   -3.1337   -2.6974   13.0776 C   0  0  0  0  0  0  0  0  0  0  0  0
   -2.8185   -1.5048   13.9835 C   0  0  2  0  0  0  0  0  0  0  0  0
   -1.5159   -1.6963   14.6623 N   0  0  0  0  0  0  0  0  0  0  0  0
   -1.4761   -2.0079   15.9980 C   0  0  0  0  0  0  0  0  0  0  0  0
   -0.2625   -2.1703   16.6607 C   0  0  0  0  0  0  0  0  0  0  0  0
    0.9188   -2.0199   15.9374 C   0  0  0  0  0  0  0  0  0  0  0  0
    2.0738   -2.1546   16.5077 N   0  0  0  0  0  0  0  0  0  0  0  0
    0.8559   -1.7363   14.6147 N   0  0  0  0  0  0  0  0  0  0  0  0
   -0.3298   -1.5834   13.9680 C   0  0  0  0  0  0  0  0  0  0  0  0
   -0.2912   -1.3229   12.5953 O   0  0  0  0  0  0  0  0  0  0  0  0
   -3.8665   -1.3368   14.9231 O   0  0  0  0  0  0  0  0  0  0  0  0
   -4.8946   -2.2394   14.5883 C   0  0  2  0  0  0  0  0  0  0  0  0
   -5.5832   -2.7355   15.8677 C   0  0  0  0  0  0  0  0  0  0  0  0
   -6.9237   -3.0981   15.6035 O   0  0  0  0  0  0  0  0  0  0  0  0
   -7.9101   -1.7046   15.5430 P   0  0  0  0  0  0  0  0  0  0  0  0
   -7.0779   -0.5035   15.1511 O   0  0  0  0  0  0  0  0  0  0  0  0
   -9.1791   -1.9099   14.4390 O   0  0  0  0  0  0  0  0  0  0  0  0
   -8.5647   -1.4368   17.0793 O   0  0  0  0  0  0  0  0  0  0  0  0
   -5.7440   -3.2731   12.4953 H   0  0  0  0  0  0  0  0  0  0  0  0
    2.1749   -2.3762   17.5244 H   0  0  0  0  0  0  0  0  0  0  0  0
   -0.9856   -1.6465   11.9365 H   0  0  0  0  0  0  0  0  0  0  0  0
   -9.8198   -1.1818   14.6400 H   0  0  0  0  0  0  0  0  0  0  0  0
   -7.8788   -0.9030   17.5542 H   0  0  0  0  0  0  0  0  0  0  0  0
  1  2  1  6  0  0  0
  1  3  1  0  0  0  0
  2 21  1  0  0  0  0
  3  4  1  0  0  0  0
  4  5  1  1  0  0  0
  4 13  1  0  0  0  0
  5  6  1  0  0  0  0
  6  7  2  0  0  0  0
  7  8  1  0  0  0  0
  8  9  2  0  0  0  0
  8 10  1  0  0  0  0
  9 22  1  0  0  0  0
 10 11  2  0  0  0  0
 11 12  1  0  0  0  0
 11  5  1  0  0  0  0
 12 23  1  0  0  0  0
 13 14  1  0  0  0  0
 14 15  1  1  0  0  0
 14  1  1  0  0  0  0
 15 16  1  0  0  0  0
 16 17  1  0  0  0  0
 17 18  2  0  0  0  0
 17 19  1  0  0  0  0
 17 20  1  0  0  0  0
 19 24  1  0  0  0  0
 20 25  1  0  0  0  0
M  END
