
 OpenBabel12121610343D
libRbt.so/2013.1/901 2013/11/27
 25 26  0  0  1  0  0  0  0  0999 V2000
   -4.2334    0.9213   16.2115 C   0  0  1  0  0  0  0  0  0  0  0  0
   -5.3919    1.5383   16.7206 O   0  0  0  0  0  0  0  0  0  0  0  0
   -3.0435    1.0892   17.1152 C   0  0  0  0  0  0  0  0  0  0  0  0
   -2.2600   -0.2090   16.9081 C   0  0  2  0  0  0  0  0  0  0  0  0
   -1.0037    0.0533   16.1683 N   0  0  0  0  0  0  0  0  0  0  0  0
   -1.0200    0.1540   14.8000 C   0  0  0  0  0  0  0  0  0  0  0  0
    0.1524    0.3779   14.0833 C   0  0  0  0  0  0  0  0  0  0  0  0
    1.3492    0.5088   14.7846 C   0  0  0  0  0  0  0  0  0  0  0  0
    2.4683    0.7121   14.1652 N   0  0  0  0  0  0  0  0  0  0  0  0
    1.3386    0.4302   16.1366 N   0  0  0  0  0  0  0  0  0  0  0  0
    0.1923    0.2170   16.8350 C   0  0  0  0  0  0  0  0  0  0  0  0
    0.2792    0.1829   18.2297 O   0  0  0  0  0  0  0  0  0  0  0  0
   -3.0730   -1.1458   16.2221 O   0  0  0  0  0  0  0  0  0  0  0  0
   -4.3642   -0.5947   16.1087 C   0  0  2  0  0  0  0  0  0  0  0  0
   -4.9997   -1.0367   14.7828 C   0  0  0  0  0  0  0  0  0  0  0  0
   -6.0293   -0.1459   14.4025 O   0  0  0  0  0  0  0  0  0  0  0  0
   -7.4992   -0.5898   15.1516 P   0  0  0  0  0  0  0  0  0  0  0  0
   -7.4334   -0.2843   16.6318 O   0  0  0  0  0  0  0  0  0  0  0  0
   -8.8059    0.2315   14.4523 O   0  0  0  0  0  0  0  0  0  0  0  0
   -7.7308   -2.2527   14.9476 O   0  0  0  0  0  0  0  0  0  0  0  0
   -6.1402    1.3659   16.0912 H   0  0  0  0  0  0  0  0  0  0  0  0
    2.5282    0.7834   13.1239 H   0  0  0  0  0  0  0  0  0  0  0  0
   -0.5127    0.0582   18.8448 H   0  0  0  0  0  0  0  0  0  0  0  0
   -9.5886    0.0027   15.0145 H   0  0  0  0  0  0  0  0  0  0  0  0
   -7.9494   -2.3592   13.9875 H   0  0  0  0  0  0  0  0  0  0  0  0
  1  2  1  1  0  0  0
  1  3  1  0  0  0  0
  2 21  1  0  0  0  0
  3  4  1  0  0  0  0
  4  5  1  6  0  0  0
  4 13  1  0  0  0  0
  5  6  1  0  0  0  0
  6  7  2  0  0  0  0
  7  8  1  0  0  0  0
  8  9  2  0  0  0  0
  8 10  1  0  0  0  0
  9 22  1  0  0  0  0
 10 11  2  0  0  0  0
 11 12  1  0  0  0  0
 11  5  1  0  0  0  0
 12 23  1  0  0  0  0
 13 14  1  0  0  0  0
 14 15  1  6  0  0  0
 14  1  1  0  0  0  0
 15 16  1  0  0  0  0
 16 17  1  0  0  0  0
 17 18  2  0  0  0  0
 17 19  1  0  0  0  0
 17 20  1  0  0  0  0
 19 24  1  0  0  0  0
 20 25  1  0  0  0  0
M  END
