
     RDKit          2D

 23 24  0  0  0  0  0  0  0  0999 V2000
    2.3388   -2.4380    0.0000 C   0  0  0  0  0  0  0  0  0  0  0  0
    1.4310   -1.2439    0.0000 C   0  0  0  0  0  0  0  0  0  0  0  0
    0.4638    2.6902    0.0000 C   0  0  0  0  0  0  0  0  0  0  0  0
   -1.8844   -0.3557    0.0000 C   0  0  0  0  0  0  0  0  0  0  0  0
   -1.0242    2.5011    0.0000 C   0  0  0  0  0  0  0  0  0  0  0  0
   -1.3042    1.0275    0.0000 C   0  0  0  0  0  0  0  0  0  0  0  0
    3.8269   -2.2489    0.0000 C   0  0  0  0  0  0  0  0  0  0  0  0
    1.1035    1.3335    0.0000 C   0  0  0  0  0  0  0  0  0  0  0  0
    3.4993    0.3285    0.0000 C   0  0  0  0  0  0  0  0  0  0  0  0
    4.7347   -3.4430    0.0000 N   0  0  0  0  0  0  0  0  0  0  0  0
    4.4071   -0.8656    0.0000 N   0  0  0  0  0  0  0  0  0  0  0  0
    2.0113    0.1394    0.0000 N   0  0  0  0  0  0  0  0  0  0  0  0
   -2.5191    2.6255    0.0000 O   0  0  0  0  0  0  0  0  0  0  0  0
    4.0796    1.7117    0.0000 O   0  0  0  0  0  0  0  0  0  0  0  0
   -2.5695   -2.5083    0.0000 O   0  0  0  0  0  0  0  0  0  0  0  0
   -4.5330   -3.3113    0.0000 O   0  0  0  0  0  0  0  0  0  0  0  0
   -5.3359   -1.3478    0.0000 O   0  0  0  0  0  0  0  0  0  0  0  0
   -3.3725   -0.5448    0.0000 O   0  0  0  0  0  0  0  0  0  0  0  0
    0.0108    0.3058    0.0000 O   0  0  0  0  0  0  0  0  0  0  0  0
   -3.9527   -1.9281    0.0000 P   0  0  0  0  0  0  0  0  0  0  0  0
   -1.0568    4.0008    0.0000 H   0  0  0  0  0  0  0  0  0  0  0  0
   -2.7405    1.4600    0.0000 H   0  0  0  0  0  0  0  0  0  0  0  0
    2.3860    2.1115    0.0000 H   0  0  0  0  0  0  0  0  0  0  0  0
  1  2  2  0
  1  7  1  0
  2 12  1  0
  3  5  1  0
  3  8  1  0
  6  4  1  6
  4 18  1  0
  5 21  1  6
  5  6  1  0
  5 13  1  0
  6 22  1  0
  6 19  1  0
  7 10  2  0
  7 11  1  0
  8 23  1  1
  8 12  1  0
  8 19  1  0
  9 11  2  0
  9 12  1  0
  9 14  1  0
 15 20  1  0
 16 20  1  0
 17 20  2  0
 18 20  1  0
M  END
